@<TRIPOS>MOLECULE
GS-114-0.out
 24 24 0 0 0
SMALL
MULLIKEN_CHARGES
****
Gaussian 16 # wB97XD def2tzvp, opt=(maxcycles=50, maxstep=10), freq=noraman, geom=
@<TRIPOS>ATOM
      1 C           1.2715   -0.0974   -0.0461 C.2     1  UNL1       -0.0374
      2 C           2.7332    0.2235   -0.1003 C.2     1  UNL1        0.2624
      3 O           3.1247    1.1792   -0.7337 O.2     1  UNL1       -0.3858
      4 C           0.2798    0.8013   -0.0574 C.2     1  UNL1        0.0096
      5 C          -1.1482    0.3856   -0.0228 C.ar    1  UNL1        0.2015
      6 C          -1.9228    0.6275    1.1077 C.ar    1  UNL1       -0.2274
      7 C          -3.2608    0.2643    1.1307 C.ar    1  UNL1       -0.1436
      8 C          -3.8418   -0.3253    0.0173 C.ar    1  UNL1       -0.1455
      9 C          -3.0776   -0.5551   -1.1180 C.ar    1  UNL1       -0.1242
     10 C          -1.7361   -0.2056   -1.1371 C.ar    1  UNL1       -0.2375
     11 H          -1.4746    1.0924    1.9777 H       1  UNL1        0.1563
     12 H          -3.8508    0.4461    2.0200 H       1  UNL1        0.1460
     13 H          -4.8880   -0.6029    0.0333 H       1  UNL1        0.1473
     14 H          -3.5258   -1.0099   -1.9922 H       1  UNL1        0.1463
     15 H          -1.1390   -0.3911   -2.0214 H       1  UNL1        0.1538
     16 C           0.4936    2.2865   -0.0888 C.3     1  UNL1       -0.3340
     17 H          -0.1991    2.7592    0.6094 H       1  UNL1        0.1438
     18 H           1.5107    2.5806    0.1467 H       1  UNL1        0.1405
     19 H           0.2493    2.6651   -1.0848 H       1  UNL1        0.1504
     20 CL          0.9219   -1.8075    0.1019 Cl      1  UNL1       -0.1017
     21 C           3.6880   -0.6660    0.6462 C.3     1  UNL1       -0.3784
     22 H           3.2988   -0.9319    1.6291 H       1  UNL1        0.1557
     23 H           3.8326   -1.5955    0.0919 H       1  UNL1        0.1597
     24 H           4.6439   -0.1559    0.7386 H       1  UNL1        0.1422
@<TRIPOS>BOND
     1    15    10    1
     2    14     9    1
     3    10     9   ar
     4    10     5   ar
     5     9     8   ar
     6    19    16    1
     7     3     2    2
     8     2     1    1
     9     2    21    1
    10    16     4    1
    11    16    18    1
    12    16    17    1
    13     4     1    2
    14     4     5    1
    15     1    20    1
    16     5     6   ar
    17     8    13    1
    18     8     7   ar
    19    23    21    1
    20    21    24    1
    21    21    22    1
    22     6     7   ar
    23     6    11    1
    24     7    12    1
