@<TRIPOS>MOLECULE
GS-16-1.out
 38 40 0 0 0
SMALL
MULLIKEN_CHARGES
****
Gaussian 16 # wB97XD def2tzvp, opt=(maxcycles=70, maxstep=1), freq=noraman, scrf=(
@<TRIPOS>ATOM
      1 C           0.3811   -1.5941   -0.5803 C.2     1  UNL1       -0.2496
      2 C          -1.0508   -1.8440   -0.8784 C.2     1  UNL1        0.2547
      3 O          -1.3373   -2.6072   -1.7842 O.2     1  UNL1       -0.3998
      4 C           0.9784   -0.4208   -0.3231 C.2     1  UNL1        0.1108
      5 C           2.4323   -0.3790   -0.0275 C.ar    1  UNL1        0.0988
      6 C           3.2261    0.6518   -0.5305 C.ar    1  UNL1       -0.2289
      7 C           4.5890    0.6789   -0.2828 C.ar    1  UNL1       -0.1484
      8 C           5.1776   -0.3150    0.4865 C.ar    1  UNL1       -0.1309
      9 C           4.3947   -1.3362    1.0061 C.ar    1  UNL1       -0.1409
     10 C           3.0331   -1.3682    0.7507 C.ar    1  UNL1       -0.2337
     11 H           2.7734    1.4321   -1.1293 H       1  UNL1        0.1618
     12 H           5.1929    1.4795   -0.6906 H       1  UNL1        0.1450
     13 H           6.2412   -0.2897    0.6867 H       1  UNL1        0.1474
     14 H           4.8438   -2.1067    1.6197 H       1  UNL1        0.1450
     15 H           2.4249   -2.1568    1.1758 H       1  UNL1        0.1665
     16 C           0.2592    0.8754   -0.3589 C.ar    1  UNL1        0.1845
     17 C           0.3796    1.7707    0.7032 C.ar    1  UNL1       -0.2270
     18 C          -0.3309    2.9583    0.7050 C.ar    1  UNL1       -0.1487
     19 C          -1.1536    3.2799   -0.3673 C.ar    1  UNL1       -0.1216
     20 C          -1.2562    2.4096   -1.4415 C.ar    1  UNL1       -0.1536
     21 C          -0.5530    1.2145   -1.4371 C.ar    1  UNL1       -0.2279
     22 H           1.0186    1.5221    1.5417 H       1  UNL1        0.1554
     23 H          -0.2438    3.6360    1.5447 H       1  UNL1        0.1442
     24 H          -1.7060    4.2109   -0.3675 H       1  UNL1        0.1470
     25 H          -1.8841    2.6602   -2.2870 H       1  UNL1        0.1444
     26 H          -0.6293    0.5409   -2.2817 H       1  UNL1        0.1611
     27 H           0.9928   -2.4847   -0.6723 H       1  UNL1        0.1697
     28 C          -2.1260   -1.2277   -0.0450 C.ar    1  UNL1        0.1442
     29 C          -3.3944   -1.0690   -0.5980 C.ar    1  UNL1       -0.2195
     30 C          -4.4181   -0.5160    0.1509 C.ar    1  UNL1       -0.1316
     31 C          -4.1872   -0.1361    1.4673 C.ar    1  UNL1       -0.1227
     32 C          -2.9308   -0.3090    2.0298 C.ar    1  UNL1       -0.1574
     33 C          -1.9009   -0.8464    1.2743 C.ar    1  UNL1       -0.1969
     34 H          -3.5631   -1.3708   -1.6234 H       1  UNL1        0.1451
     35 H          -5.3974   -0.3794   -0.2895 H       1  UNL1        0.1468
     36 H          -4.9884    0.2942    2.0547 H       1  UNL1        0.1493
     37 H          -2.7511   -0.0211    3.0576 H       1  UNL1        0.1459
     38 H          -0.9201   -0.9746    1.7130 H       1  UNL1        0.1717
@<TRIPOS>BOND
     1    25    20    1
     2    26    21    1
     3     3     2    2
     4    34    29    1
     5    20    21   ar
     6    20    19   ar
     7    21    16   ar
     8    11     6    1
     9     2     1    1
    10     2    28    1
    11    12     7    1
    12    27     1    1
    13    29    28   ar
    14    29    30   ar
    15     1     4    2
    16     6     7   ar
    17     6     5   ar
    18    24    19    1
    19    19    18   ar
    20    16     4    1
    21    16    17   ar
    22     4     5    1
    23    35    30    1
    24     7     8   ar
    25    28    33   ar
    26     5    10   ar
    27    30    31   ar
    28     8    13    1
    29     8     9   ar
    30    17    18   ar
    31    17    22    1
    32    18    23    1
    33    10     9   ar
    34    10    15    1
    35     9    14    1
    36    33    38    1
    37    33    32   ar
    38    31    32   ar
    39    31    36    1
    40    32    37    1
