@<TRIPOS>MOLECULE
GS-172-0.out
 22 22 0 0 0
SMALL
MULLIKEN_CHARGES
****
Gaussian 16 # wB97XD def2tzvp, opt=(maxcycles=50, maxstep=10), freq=noraman, geom=
@<TRIPOS>ATOM
      1 C           0.9927   -0.4412    0.0989 C.2     1  UNL1       -0.2605
      2 C           2.4373   -0.1588    0.0352 C.2     1  UNL1        0.4335
      3 O           2.9706    0.8951   -0.2105 O.2     1  UNL1       -0.4155
      4 C          -0.0216    0.4119   -0.0625 C.2     1  UNL1        0.0767
      5 C          -1.4355   -0.0201   -0.0179 C.ar    1  UNL1        0.2058
      6 C          -2.4100    0.7615    0.6004 C.ar    1  UNL1       -0.2304
      7 C          -3.7203    0.3191    0.6701 C.ar    1  UNL1       -0.1336
      8 C          -4.0775   -0.8992    0.1096 C.ar    1  UNL1       -0.1396
      9 C          -3.1163   -1.6751   -0.5215 C.ar    1  UNL1       -0.1306
     10 C          -1.8027   -1.2403   -0.5849 C.ar    1  UNL1       -0.2508
     11 H          -2.1404    1.7134    1.0382 H       1  UNL1        0.1541
     12 H          -4.4653    0.9297    1.1635 H       1  UNL1        0.1496
     13 H          -5.1039   -1.2394    0.1582 H       1  UNL1        0.1505
     14 H          -3.3899   -2.6191   -0.9745 H       1  UNL1        0.1502
     15 H          -1.0624   -1.8411   -1.0970 H       1  UNL1        0.1684
     16 CL          0.2170    2.1056   -0.3343 Cl      1  UNL1       -0.0551
     17 H           0.7382   -1.4703    0.3125 H       1  UNL1        0.1781
     18 O           3.1191   -1.2802    0.2957 O.3     1  UNL1       -0.2795
     19 C           4.5425   -1.1745    0.2716 C.3     1  UNL1       -0.1978
     20 H           4.9158   -2.1679    0.5016 H       1  UNL1        0.1480
     21 H           4.8855   -0.8605   -0.7138 H       1  UNL1        0.1394
     22 H           4.8851   -0.4595    1.0190 H       1  UNL1        0.1392
@<TRIPOS>BOND
     1    15    10    1
     2    14     9    1
     3    21    19    1
     4    10     9   ar
     5    10     5   ar
     6     9     8   ar
     7    16     4    1
     8     3     2    2
     9     4     5    1
    10     4     1    2
    11     5     6   ar
    12     2     1    1
    13     2    18    1
    14     1    17    1
    15     8    13    1
    16     8     7   ar
    17    19    18    1
    18    19    20    1
    19    19    22    1
    20     6     7   ar
    21     6    11    1
    22     7    12    1
