@<TRIPOS>MOLECULE
GS-164-0.out
 32 33 0 0 0
SMALL
MULLIKEN_CHARGES
****
Gaussian 16 # wB97XD def2tzvp, opt=(calcfc, maxcycles=70, maxstep=10), freq=norama
@<TRIPOS>ATOM
      1 C           0.8162   -0.2874   -0.1409 C.2     1  UNL1        0.0514
      2 C           2.2340   -0.7529   -0.3043 C.2     1  UNL1        0.3201
      3 O           2.7530   -0.9735   -1.3685 O.2     1  UNL1       -0.3941
      4 C          -0.1910   -1.1579   -0.1358 C.2     1  UNL1        0.0858
      5 C          -1.6313   -0.8283   -0.1098 C.ar    1  UNL1        0.1121
      6 C          -2.1538    0.0520   -1.0539 C.ar    1  UNL1       -0.2199
      7 C          -3.4982    0.3859   -1.0280 C.ar    1  UNL1       -0.1426
      8 C          -4.3315   -0.1555   -0.0599 C.ar    1  UNL1       -0.1281
      9 C          -3.8172   -1.0405    0.8778 C.ar    1  UNL1       -0.1457
     10 C          -2.4750   -1.3816    0.8498 C.ar    1  UNL1       -0.2228
     11 H          -1.5028    0.4758   -1.8076 H       1  UNL1        0.1651
     12 H          -3.8953    1.0688   -1.7679 H       1  UNL1        0.1468
     13 H          -5.3814    0.1075   -0.0387 H       1  UNL1        0.1488
     14 H          -4.4634   -1.4670    1.6342 H       1  UNL1        0.1471
     15 H          -2.0774   -2.0734    1.5817 H       1  UNL1        0.1521
     16 CL          0.1632   -2.8716   -0.1838 Cl      1  UNL1       -0.0882
     17 C           0.6518    1.1803    0.0109 C.ar    1  UNL1        0.1429
     18 C          -0.0903    1.7092    1.0648 C.ar    1  UNL1       -0.2226
     19 C          -0.2310    3.0800    1.2030 C.ar    1  UNL1       -0.1498
     20 C           0.3724    3.9389    0.2947 C.ar    1  UNL1       -0.1272
     21 C           1.1248    3.4195   -0.7486 C.ar    1  UNL1       -0.1531
     22 C           1.2689    2.0478   -0.8878 C.ar    1  UNL1       -0.2107
     23 H          -0.5572    1.0419    1.7777 H       1  UNL1        0.1622
     24 H          -0.8105    3.4788    2.0258 H       1  UNL1        0.1453
     25 H           0.2608    5.0101    0.4034 H       1  UNL1        0.1478
     26 H           1.6009    4.0833   -1.4588 H       1  UNL1        0.1461
     27 H           1.8532    1.6475   -1.7072 H       1  UNL1        0.1530
     28 O           2.8510   -0.8373    0.8648 O.3     1  UNL1       -0.2570
     29 C           4.2297   -1.2272    0.8332 C.3     1  UNL1       -0.2054
     30 H           4.5549   -1.2358    1.8687 H       1  UNL1        0.1521
     31 H           4.3303   -2.2186    0.3940 H       1  UNL1        0.1446
     32 H           4.8106   -0.5088    0.2568 H       1  UNL1        0.1441
@<TRIPOS>BOND
     1    11     6    1
     2    12     7    1
     3    27    22    1
     4    26    21    1
     5     3     2    2
     6     6     7   ar
     7     6     5   ar
     8     7     8   ar
     9    22    21   ar
    10    22    17   ar
    11    21    20   ar
    12     2     1    1
    13     2    28    1
    14    16     4    1
    15     1     4    2
    16     1    17    1
    17     4     5    1
    18     5    10   ar
    19     8    13    1
    20     8     9   ar
    21    17    18   ar
    22    32    29    1
    23    20    25    1
    24    20    19   ar
    25    31    29    1
    26    29    28    1
    27    29    30    1
    28    10     9   ar
    29    10    15    1
    30     9    14    1
    31    18    19   ar
    32    18    23    1
    33    19    24    1
