@<TRIPOS>MOLECULE
GS-168-1.out
 38 40 0 0 0
SMALL
MULLIKEN_CHARGES
****
Gaussian 16 # wB97XD def2tzvp, opt=(maxcycles=50, maxstep=1), freq=noraman, scrf=(
@<TRIPOS>ATOM
      1 C           0.0990   -0.0263   -0.6269 C.2     1  UNL1        0.0202
      2 C           1.4991   -0.1766   -1.1725 C.2     1  UNL1        0.2539
      3 O           1.6830   -0.1381   -2.3693 O.2     1  UNL1       -0.3737
      4 C          -0.7131   -1.0724   -0.5006 C.2     1  UNL1        0.1018
      5 C          -2.1360   -1.0390   -0.1029 C.ar    1  UNL1        0.1264
      6 C          -3.0228   -0.2072   -0.7817 C.ar    1  UNL1       -0.2176
      7 C          -4.3540   -0.1474   -0.4020 C.ar    1  UNL1       -0.1455
      8 C          -4.8108   -0.9169    0.6582 C.ar    1  UNL1       -0.1268
      9 C          -3.9327   -1.7545    1.3323 C.ar    1  UNL1       -0.1440
     10 C          -2.6030   -1.8213    0.9503 C.ar    1  UNL1       -0.2370
     11 H          -2.6652    0.3945   -1.6073 H       1  UNL1        0.1625
     12 H          -5.0358    0.5003   -0.9379 H       1  UNL1        0.1462
     13 H          -5.8504   -0.8683    0.9559 H       1  UNL1        0.1485
     14 H          -4.2842   -2.3582    2.1591 H       1  UNL1        0.1467
     15 H          -1.9210   -2.4766    1.4773 H       1  UNL1        0.1519
     16 CL         -0.0906   -2.6765   -0.8386 Cl      1  UNL1       -0.0941
     17 C          -0.2711    1.3618   -0.2495 C.ar    1  UNL1        0.1528
     18 C          -0.8101    1.6403    1.0055 C.ar    1  UNL1       -0.2457
     19 C          -1.1362    2.9395    1.3563 C.ar    1  UNL1       -0.1429
     20 C          -0.9234    3.9786    0.4606 C.ar    1  UNL1       -0.1287
     21 C          -0.3755    3.7113   -0.7851 C.ar    1  UNL1       -0.1499
     22 C          -0.0446    2.4116   -1.1370 C.ar    1  UNL1       -0.2235
     23 H          -0.9753    0.8339    1.7086 H       1  UNL1        0.1731
     24 H          -1.5544    3.1414    2.3341 H       1  UNL1        0.1449
     25 H          -1.1790    4.9939    0.7356 H       1  UNL1        0.1475
     26 H          -0.2040    4.5165   -1.4879 H       1  UNL1        0.1455
     27 H           0.3797    2.2088   -2.1123 H       1  UNL1        0.1522
     28 C           2.6139   -0.3015   -0.1985 C.ar    1  UNL1        0.0544
     29 C           3.9274   -0.2740   -0.6657 C.ar    1  UNL1       -0.2181
     30 C           4.9819   -0.3929    0.2204 C.ar    1  UNL1       -0.1251
     31 C           4.7323   -0.5437    1.5797 C.ar    1  UNL1       -0.1133
     32 C           3.4280   -0.5747    2.0511 C.ar    1  UNL1       -0.1681
     33 C           2.3703   -0.4520    1.1647 C.ar    1  UNL1       -0.1524
     34 H           4.1066   -0.1566   -1.7262 H       1  UNL1        0.1491
     35 H           6.0005   -0.3683   -0.1442 H       1  UNL1        0.1508
     36 H           5.5588   -0.6374    2.2727 H       1  UNL1        0.1530
     37 H           3.2344   -0.6945    3.1089 H       1  UNL1        0.1490
     38 H           1.3536   -0.4810    1.5346 H       1  UNL1        0.1761
@<TRIPOS>BOND
     1     3     2    2
     2    27    22    1
     3    34    29    1
     4    11     6    1
     5    26    21    1
     6     2     1    1
     7     2    28    1
     8    22    21   ar
     9    22    17   ar
    10    12     7    1
    11    16     4    1
    12    21    20   ar
    13     6     7   ar
    14     6     5   ar
    15    29    28   ar
    16    29    30   ar
    17     1     4    2
    18     1    17    1
    19     4     5    1
    20     7     8   ar
    21    17    18   ar
    22    28    33   ar
    23    35    30    1
    24     5    10   ar
    25    30    31   ar
    26    20    25    1
    27    20    19   ar
    28     8    13    1
    29     8     9   ar
    30    10     9   ar
    31    10    15    1
    32    18    19   ar
    33    18    23    1
    34    33    38    1
    35    33    32   ar
    36     9    14    1
    37    19    24    1
    38    31    32   ar
    39    31    36    1
    40    32    37    1
