@<TRIPOS>MOLECULE
GS-181-0.out
 26 26 0 0 0
SMALL
MULLIKEN_CHARGES
****
Gaussian 16 # wB97XD def2tzvp, opt=(maxcycles=50, maxstep=10), freq=noraman, geom=
@<TRIPOS>ATOM
      1 C          -0.8770    0.7256    0.1360 C.2     1  UNL1       -0.0525
      2 C          -2.3449    0.5341   -0.1404 C.2     1  UNL1        0.3029
      3 O          -2.8694    1.0489   -1.1197 O.2     1  UNL1       -0.4809
      4 C           0.0182   -0.2096   -0.1624 C.2     1  UNL1        0.0328
      5 C           1.4875   -0.0936   -0.0287 C.ar    1  UNL1        0.1706
      6 C           2.1971   -0.9614    0.7985 C.ar    1  UNL1       -0.2093
      7 C           3.5704   -0.8372    0.9271 C.ar    1  UNL1       -0.1499
      8 C           4.2509    0.1482    0.2236 C.ar    1  UNL1       -0.1355
      9 C           3.5515    1.0088   -0.6087 C.ar    1  UNL1       -0.1227
     10 C           2.1755    0.8882   -0.7357 C.ar    1  UNL1       -0.2543
     11 H           1.6696   -1.7331    1.3455 H       1  UNL1        0.1517
     12 H           4.1118   -1.5110    1.5788 H       1  UNL1        0.1468
     13 H           5.3247    0.2420    0.3230 H       1  UNL1        0.1487
     14 H           4.0765    1.7752   -1.1643 H       1  UNL1        0.1476
     15 H           1.6291    1.5571   -1.3887 H       1  UNL1        0.1608
     16 CL         -0.5109   -1.7535   -0.8190 Cl      1  UNL1       -0.1111
     17 C          -0.5364    2.0675    0.7164 C.3     1  UNL1       -0.3464
     18 H          -0.7469    2.8543   -0.0111 H       1  UNL1        0.1512
     19 H          -1.1581    2.2596    1.5935 H       1  UNL1        0.1460
     20 H           0.5088    2.1338    1.0076 H       1  UNL1        0.1506
     21 N          -3.0221   -0.1662    0.7776 N.am    1  UNL1       -0.3004
     22 C          -4.4409   -0.4250    0.6602 C.3     1  UNL1       -0.2545
     23 H          -2.5082   -0.5894    1.5302 H       1  UNL1        0.2819
     24 H          -4.7744   -0.9448    1.5545 H       1  UNL1        0.1493
     25 H          -4.9931    0.5102    0.5663 H       1  UNL1        0.1386
     26 H          -4.6568   -1.0439   -0.2127 H       1  UNL1        0.1381
@<TRIPOS>BOND
     1    15    10    1
     2    14     9    1
     3     3     2    2
     4    16     4    1
     5    10     9   ar
     6    10     5   ar
     7     9     8   ar
     8    26    22    1
     9     4     5    1
    10     4     1    2
    11     2     1    1
    12     2    21   am
    13     5     6   ar
    14    18    17    1
    15     1    17    1
    16     8    13    1
    17     8     7   ar
    18    25    22    1
    19    22    21    1
    20    22    24    1
    21    17    20    1
    22    17    19    1
    23    21    23    1
    24     6     7   ar
    25     6    11    1
    26     7    12    1
