@<TRIPOS>MOLECULE
GS-176-0.out
 28 29 0 0 0
SMALL
MULLIKEN_CHARGES
****
Gaussian 16 # wB97XD def2tzvp, opt=(maxcycles=50, maxstep=10), freq=noraman, geom=
@<TRIPOS>ATOM
      1 C           0.1100    1.0831   -0.4092 C.2     1  UNL1       -0.1882
      2 C          -1.3081    1.4633   -0.1287 C.2     1  UNL1        0.3648
      3 O          -1.5492    2.6185    0.1549 O.2     1  UNL1       -0.3821
      4 C           0.8728    0.2624    0.3028 C.2     1  UNL1        0.0093
      5 C           2.3084    0.0249    0.0439 C.ar    1  UNL1        0.2128
      6 C           3.1193    1.0783   -0.3767 C.ar    1  UNL1       -0.2595
      7 C           4.4560    0.8607   -0.6692 C.ar    1  UNL1       -0.1287
      8 C           5.0000   -0.4089   -0.5420 C.ar    1  UNL1       -0.1426
      9 C           4.2010   -1.4598   -0.1139 C.ar    1  UNL1       -0.1373
     10 C           2.8656   -1.2449    0.1839 C.ar    1  UNL1       -0.2298
     11 H           2.7074    2.0760   -0.4566 H       1  UNL1        0.1624
     12 H           5.0755    1.6891   -0.9877 H       1  UNL1        0.1492
     13 H           6.0450   -0.5777   -0.7678 H       1  UNL1        0.1494
     14 H           4.6188   -2.4529   -0.0103 H       1  UNL1        0.1484
     15 H           2.2505   -2.0701    0.5181 H       1  UNL1        0.1538
     16 CL          0.2030   -0.5977    1.6682 Cl      1  UNL1       -0.0864
     17 H           0.5667    1.6141   -1.2367 H       1  UNL1        0.1910
     18 C          -2.3853    0.4468   -0.2593 C.ar    1  UNL1        0.0133
     19 C          -3.6535    0.7403    0.2396 C.ar    1  UNL1       -0.2018
     20 C          -4.6800   -0.1776    0.1120 C.ar    1  UNL1       -0.1264
     21 C          -4.4507   -1.3902   -0.5274 C.ar    1  UNL1       -0.1210
     22 C          -3.1932   -1.6847   -1.0342 C.ar    1  UNL1       -0.1446
     23 C          -2.1606   -0.7715   -0.8957 C.ar    1  UNL1       -0.1797
     24 H          -3.8199    1.6900    0.7307 H       1  UNL1        0.1492
     25 H          -5.6610    0.0491    0.5090 H       1  UNL1        0.1503
     26 H          -5.2556   -2.1070   -0.6299 H       1  UNL1        0.1524
     27 H          -3.0162   -2.6272   -1.5356 H       1  UNL1        0.1500
     28 H          -1.1791   -1.0034   -1.2887 H       1  UNL1        0.1719
@<TRIPOS>BOND
     1    27    22    1
     2    28    23    1
     3    17     1    1
     4    22    23   ar
     5    22    21   ar
     6    12     7    1
     7    23    18   ar
     8    13     8    1
     9     7     8   ar
    10     7     6   ar
    11    26    21    1
    12     8     9   ar
    13    21    20   ar
    14    11     6    1
    15     1     2    1
    16     1     4    2
    17     6     5   ar
    18    18     2    1
    19    18    19   ar
    20     2     3    2
    21     9    14    1
    22     9    10   ar
    23     5    10   ar
    24     5     4    1
    25    20    19   ar
    26    20    25    1
    27    10    15    1
    28    19    24    1
    29     4    16    1
