@<TRIPOS>MOLECULE
GS-178-0.out
 24 24 0 0 0
SMALL
MULLIKEN_CHARGES
****
Gaussian 16 # wB97XD def2tzvp, opt=(calcfc, maxcycles=70, maxstep=10), freq=norama
@<TRIPOS>ATOM
      1 C           1.2462   -0.6686    0.1625 C.2     1  UNL1       -0.0098
      2 C           2.7173   -0.3899   -0.0187 C.2     1  UNL1        0.1964
      3 O           3.2750   -0.7269   -1.0365 O.2     1  UNL1       -0.3686
      4 C           0.3271    0.2489   -0.1116 C.2     1  UNL1        0.0174
      5 C          -1.1405    0.0831   -0.0364 C.ar    1  UNL1        0.1790
      6 C          -1.9107    0.9190    0.7697 C.ar    1  UNL1       -0.2131
      7 C          -3.2824    0.7463    0.8460 C.ar    1  UNL1       -0.1477
      8 C          -3.9017   -0.2566    0.1113 C.ar    1  UNL1       -0.1365
      9 C          -3.1423   -1.0854   -0.7003 C.ar    1  UNL1       -0.1228
     10 C          -1.7677   -0.9159   -0.7756 C.ar    1  UNL1       -0.2578
     11 H          -1.4316    1.7043    1.3413 H       1  UNL1        0.1522
     12 H          -3.8707    1.3959    1.4814 H       1  UNL1        0.1470
     13 H          -4.9745   -0.3881    0.1697 H       1  UNL1        0.1487
     14 H          -3.6193   -1.8644   -1.2811 H       1  UNL1        0.1476
     15 H          -1.1754   -1.5584   -1.4148 H       1  UNL1        0.1627
     16 CL          0.8413    1.8462   -0.6456 Cl      1  UNL1       -0.1150
     17 C           0.9495   -2.0533    0.6610 C.3     1  UNL1       -0.3395
     18 H           1.1785   -2.7880   -0.1141 H       1  UNL1        0.1552
     19 H           1.5778   -2.2851    1.5240 H       1  UNL1        0.1459
     20 H          -0.0925   -2.1658    0.9508 H       1  UNL1        0.1550
     21 C           3.4290    0.2392    1.1411 C.3     1  UNL1       -0.3484
     22 H           2.9734    1.2047    1.3684 H       1  UNL1        0.1545
     23 H           3.3030   -0.3891    2.0260 H       1  UNL1        0.1568
     24 H           4.4868    0.3634    0.9206 H       1  UNL1        0.1405
@<TRIPOS>BOND
     1    15    10    1
     2    14     9    1
     3     3     2    2
     4    10     9   ar
     5    10     5   ar
     6     9     8   ar
     7    16     4    1
     8    18    17    1
     9     4     5    1
    10     4     1    2
    11     5     6   ar
    12     2     1    1
    13     2    21    1
    14     8    13    1
    15     8     7   ar
    16     1    17    1
    17    17    20    1
    18    17    19    1
    19     6     7   ar
    20     6    11    1
    21     7    12    1
    22    24    21    1
    23    21    22    1
    24    21    23    1
