@<TRIPOS>MOLECULE
GS-175-0.out
 30 31 0 0 0
SMALL
MULLIKEN_CHARGES
****
Gaussian 16 # wB97XD def2tzvp, opt=(maxcycles=50, maxstep=10), freq=noraman, geom=
@<TRIPOS>ATOM
      1 C          -0.6757    1.0173   -0.0596 C.2     1  UNL1       -0.2313
      2 C           0.7892    1.1419   -0.3118 C.2     1  UNL1        0.4125
      3 O           1.2017    2.0528   -1.0106 O.2     1  UNL1       -0.4678
      4 C          -1.4652   -0.0428   -0.2119 C.2     1  UNL1        0.0255
      5 C          -2.9240   -0.0164    0.0266 C.ar    1  UNL1        0.2043
      6 C          -3.4315    0.7267    1.0918 C.ar    1  UNL1       -0.2458
      7 C          -4.7978    0.7972    1.3094 C.ar    1  UNL1       -0.1317
      8 C          -5.6730    0.1257    0.4684 C.ar    1  UNL1       -0.1412
      9 C          -5.1742   -0.6227   -0.5884 C.ar    1  UNL1       -0.1322
     10 C          -3.8085   -0.6998   -0.8056 C.ar    1  UNL1       -0.2372
     11 H          -2.7529    1.2360    1.7640 H       1  UNL1        0.1678
     12 H          -5.1777    1.3713    2.1446 H       1  UNL1        0.1495
     13 H          -6.7403    0.1791    0.6401 H       1  UNL1        0.1499
     14 H          -5.8511   -1.1501   -1.2480 H       1  UNL1        0.1491
     15 H          -3.4289   -1.2861   -1.6320 H       1  UNL1        0.1547
     16 CL         -0.8293   -1.5771   -0.7516 Cl      1  UNL1       -0.0822
     17 H          -1.1508    1.9605    0.1805 H       1  UNL1        0.1895
     18 N           1.5730    0.2294    0.3131 N.am    1  UNL1       -0.2780
     19 C           2.9673    0.0622    0.2565 C.ar    1  UNL1        0.3142
     20 C           3.5059   -0.9893    0.9996 C.ar    1  UNL1       -0.3048
     21 C           4.8687   -1.2231    0.9955 C.ar    1  UNL1       -0.0976
     22 C           5.7167   -0.4137    0.2513 C.ar    1  UNL1       -0.1854
     23 C           5.1799    0.6295   -0.4858 C.ar    1  UNL1       -0.1095
     24 C           3.8139    0.8773   -0.4916 C.ar    1  UNL1       -0.2920
     25 H           1.0874   -0.4430    0.8841 H       1  UNL1        0.2726
     26 H           2.8508   -1.6257    1.5830 H       1  UNL1        0.1463
     27 H           5.2685   -2.0434    1.5777 H       1  UNL1        0.1473
     28 H           6.7833   -0.5959    0.2476 H       1  UNL1        0.1443
     29 H           5.8294    1.2685   -1.0708 H       1  UNL1        0.1454
     30 H           3.4066    1.6919   -1.0673 H       1  UNL1        0.1637
@<TRIPOS>BOND
     1    15    10    1
     2    14     9    1
     3    29    23    1
     4    30    24    1
     5     3     2    2
     6    10     9   ar
     7    10     5   ar
     8    16     4    1
     9     9     8   ar
    10    24    23   ar
    11    24    19   ar
    12    23    22   ar
    13     2     1    1
    14     2    18   am
    15     4     1    2
    16     4     5    1
    17     1    17    1
    18     5     6   ar
    19    28    22    1
    20    22    21   ar
    21    19    18    1
    22    19    20   ar
    23    18    25    1
    24     8    13    1
    25     8     7   ar
    26    21    20   ar
    27    21    27    1
    28    20    26    1
    29     6     7   ar
    30     6    11    1
    31     7    12    1
