@<TRIPOS>MOLECULE
GS-127-3.out
 40 42 0 0 0
SMALL
MULLIKEN_CHARGES
****
Gaussian 16 # wB97XD def2tzvp, opt=(maxcycles=50, maxstep=5), freq=noraman, scrf=(
@<TRIPOS>ATOM
      1 C           0.3071    0.2538   -0.3388 C.2     1  UNL1       -0.0288
      2 C          -1.1461    0.1689   -0.7405 C.2     1  UNL1        0.3330
      3 O          -1.4764    0.1827   -1.9118 O.2     1  UNL1       -0.4480
      4 C           1.0634   -0.8324   -0.2043 C.2     1  UNL1        0.0491
      5 C           2.5205   -0.8494    0.0423 C.ar    1  UNL1        0.1280
      6 C           3.0574   -1.4990    1.1507 C.ar    1  UNL1       -0.2224
      7 C           4.4229   -1.4719    1.3807 C.ar    1  UNL1       -0.1486
      8 C           5.2660   -0.8088    0.4991 C.ar    1  UNL1       -0.1264
      9 C           4.7376   -0.1729   -0.6147 C.ar    1  UNL1       -0.1452
     10 C           3.3709   -0.1920   -0.8430 C.ar    1  UNL1       -0.2176
     11 H           2.4027   -2.0180    1.8397 H       1  UNL1        0.1541
     12 H           4.8302   -1.9698    2.2512 H       1  UNL1        0.1466
     13 H           6.3333   -0.7918    0.6787 H       1  UNL1        0.1486
     14 H           5.3903    0.3392   -1.3099 H       1  UNL1        0.1466
     15 H           2.9563    0.3081   -1.7089 H       1  UNL1        0.1615
     16 BR          0.2715   -2.5637   -0.3837 Br      1  UNL1       -0.0656
     17 C           0.8147    1.6349   -0.1259 C.ar    1  UNL1        0.1439
     18 C           1.4744    1.9744    1.0535 C.ar    1  UNL1       -0.2169
     19 C           1.9348    3.2657    1.2521 C.ar    1  UNL1       -0.1540
     20 C           1.7388    4.2337    0.2771 C.ar    1  UNL1       -0.1221
     21 C           1.0712    3.9056   -0.8941 C.ar    1  UNL1       -0.1560
     22 C           0.6058    2.6153   -1.0937 C.ar    1  UNL1       -0.2161
     23 H           1.6255    1.2222    1.8170 H       1  UNL1        0.1614
     24 H           2.4457    3.5168    2.1728 H       1  UNL1        0.1447
     25 H           2.1008    5.2420    0.4320 H       1  UNL1        0.1475
     26 H           0.9125    4.6563   -1.6576 H       1  UNL1        0.1451
     27 H           0.0875    2.3618   -2.0099 H       1  UNL1        0.1522
     28 N          -1.9920    0.1345    0.3161 N.am    1  UNL1       -0.2430
     29 C          -3.3978    0.0804    0.3320 C.ar    1  UNL1        0.3033
     30 C          -4.1815    0.1283   -0.8182 C.ar    1  UNL1       -0.2833
     31 C          -5.5639    0.0733   -0.7032 C.ar    1  UNL1       -0.1139
     32 C          -6.1767   -0.0276    0.5352 C.ar    1  UNL1       -0.1821
     33 C          -5.3901   -0.0742    1.6786 C.ar    1  UNL1       -0.0992
     34 C          -4.0119   -0.0213    1.5802 C.ar    1  UNL1       -0.3023
     35 H          -1.5501    0.1142    1.2216 H       1  UNL1        0.2766
     36 H          -3.7141    0.2070   -1.7860 H       1  UNL1        0.1645
     37 H          -6.1652    0.1110   -1.6029 H       1  UNL1        0.1457
     38 H          -7.2553   -0.0695    0.6113 H       1  UNL1        0.1447
     39 H          -5.8503   -0.1530    2.6552 H       1  UNL1        0.1475
     40 H          -3.4039   -0.0593    2.4764 H       1  UNL1        0.1471
@<TRIPOS>BOND
     1    27    22    1
     2     3     2    2
     3    36    30    1
     4    15    10    1
     5    26    21    1
     6    37    31    1
     7    14     9    1
     8    22    21   ar
     9    22    17   ar
    10    21    20   ar
    11    10     9   ar
    12    10     5   ar
    13    30    31   ar
    14    30    29   ar
    15     2     1    1
    16     2    28   am
    17    31    32   ar
    18     9     8   ar
    19    16     4    1
    20     1     4    2
    21     1    17    1
    22     4     5    1
    23    17    18   ar
    24     5     6   ar
    25    20    25    1
    26    20    19   ar
    27    28    29    1
    28    28    35    1
    29    29    34   ar
    30     8    13    1
    31     8     7   ar
    32    32    38    1
    33    32    33   ar
    34    18    19   ar
    35    18    23    1
    36     6     7   ar
    37     6    11    1
    38    19    24    1
    39     7    12    1
    40    34    33   ar
    41    34    40    1
    42    33    39    1
