@<TRIPOS>MOLECULE
GS-139-1.out
 23 23 0 0 0
SMALL
MULLIKEN_CHARGES
****
Gaussian 16 # wB97XD def2tzvp, opt=(maxcycles=50, maxstep=1), freq=noraman, scrf=(
@<TRIPOS>ATOM
      1 C          -1.0312    1.0843   -0.1835 C.2     1  UNL1       -0.0312
      2 C          -2.5291    0.9141   -0.1916 C.2     1  UNL1        0.2721
      3 O          -3.1511    0.8910   -1.2420 O.2     1  UNL1       -0.4542
      4 C          -0.1985    0.0611   -0.0361 C.2     1  UNL1       -0.0375
      5 C           1.2789    0.1376   -0.0186 C.ar    1  UNL1        0.1840
      6 C           1.9238    0.8111    1.0149 C.ar    1  UNL1       -0.2371
      7 C           3.3077    0.9016    1.0356 C.ar    1  UNL1       -0.1249
      8 C           4.0576    0.3193    0.0249 C.ar    1  UNL1       -0.1368
      9 C           3.4195   -0.3567   -1.0069 C.ar    1  UNL1       -0.1474
     10 C           2.0379   -0.4519   -1.0269 C.ar    1  UNL1       -0.2021
     11 H           1.3362    1.2651    1.8031 H       1  UNL1        0.1571
     12 H           3.7992    1.4272    1.8443 H       1  UNL1        0.1476
     13 H           5.1377    0.3899    0.0406 H       1  UNL1        0.1488
     14 H           4.0004   -0.8108   -1.7994 H       1  UNL1        0.1472
     15 H           1.5425   -0.9824   -1.8308 H       1  UNL1        0.1539
     16 BR         -0.8802   -1.7190    0.1776 Br      1  UNL1       -0.0850
     17 C          -0.5850    2.4971   -0.4310 C.3     1  UNL1       -0.3491
     18 H          -1.0834    2.8822   -1.3227 H       1  UNL1        0.1498
     19 H          -0.8696    3.1378    0.4068 H       1  UNL1        0.1493
     20 H           0.4908    2.5656   -0.5714 H       1  UNL1        0.1501
     21 N          -3.1085    0.8647    1.0172 N.am    1  UNL1       -0.4344
     22 H          -4.1063    0.7570    1.0864 H       1  UNL1        0.2826
     23 H          -2.5608    0.8462    1.8587 H       1  UNL1        0.2972
@<TRIPOS>BOND
     1    15    10    1
     2    14     9    1
     3    18    17    1
     4     3     2    2
     5    10     9   ar
     6    10     5   ar
     7     9     8   ar
     8    20    17    1
     9    17     1    1
    10    17    19    1
    11     2     1    1
    12     2    21   am
    13     1     4    2
    14     4     5    1
    15     4    16    1
    16     5     6   ar
    17     8    13    1
    18     8     7   ar
    19     6     7   ar
    20     6    11    1
    21    21    22    1
    22    21    23    1
    23     7    12    1
