@<TRIPOS>MOLECULE
GS-179-0.out
 23 23 0 0 0
SMALL
MULLIKEN_CHARGES
****
Gaussian 16 # wB97XD def2tzvp, opt=(maxcycles=50, maxstep=10), freq=noraman, geom=
@<TRIPOS>ATOM
      1 C           1.2557   -0.6480    0.2131 C.2     1  UNL1       -0.0482
      2 C           2.7269   -0.3851    0.0200 C.2     1  UNL1        0.2620
      3 O           3.3088   -0.7975   -0.9713 O.2     1  UNL1       -0.4553
      4 C           0.3382    0.2648   -0.0854 C.2     1  UNL1        0.0287
      5 C          -1.1296    0.0853   -0.0305 C.ar    1  UNL1        0.1855
      6 C          -1.9147    0.8969    0.7856 C.ar    1  UNL1       -0.2109
      7 C          -3.2862    0.7136    0.8409 C.ar    1  UNL1       -0.1472
      8 C          -3.8896   -0.2753    0.0747 C.ar    1  UNL1       -0.1380
      9 C          -3.1149   -1.0796   -0.7470 C.ar    1  UNL1       -0.1214
     10 C          -1.7405   -0.8998   -0.8010 C.ar    1  UNL1       -0.2549
     11 H          -1.4475    1.6712    1.3815 H       1  UNL1        0.1520
     12 H          -3.8865    1.3439    1.4844 H       1  UNL1        0.1471
     13 H          -4.9621   -0.4153    0.1169 H       1  UNL1        0.1487
     14 H          -3.5795   -1.8479   -1.3516 H       1  UNL1        0.1478
     15 H          -1.1355   -1.5243   -1.4462 H       1  UNL1        0.1619
     16 CL          0.8366    1.8586   -0.6369 Cl      1  UNL1       -0.1098
     17 C           0.9477   -2.0289    0.7152 C.3     1  UNL1       -0.3458
     18 H           1.2210   -2.7710   -0.0380 H       1  UNL1        0.1520
     19 H           1.5384   -2.2385    1.6095 H       1  UNL1        0.1472
     20 H          -0.1055   -2.1494    0.9562 H       1  UNL1        0.1519
     21 N           3.3380    0.2548    1.0280 N.am    1  UNL1       -0.4327
     22 H           4.3227    0.4522    0.9682 H       1  UNL1        0.2823
     23 H           2.8186    0.6168    1.8074 H       1  UNL1        0.2969
@<TRIPOS>BOND
     1    15    10    1
     2    14     9    1
     3     3     2    2
     4    10     9   ar
     5    10     5   ar
     6     9     8   ar
     7    16     4    1
     8     4     5    1
     9     4     1    2
    10    18    17    1
    11     5     6   ar
    12     2     1    1
    13     2    21   am
    14     8    13    1
    15     8     7   ar
    16     1    17    1
    17    17    20    1
    18    17    19    1
    19     6     7   ar
    20     6    11    1
    21     7    12    1
    22    22    21    1
    23    21    23    1
