@<TRIPOS>MOLECULE
GS-102-0.out
 32 32 0 0 0
SMALL
MULLIKEN_CHARGES
****
Gaussian 16 # wB97XD def2tzvp, opt=(calcfc, maxcycles=70, maxstep=10), freq=norama
@<TRIPOS>ATOM
      1 C          -0.7009   -0.5776   -0.2126 C.2     1  UNL1       -0.0740
      2 C          -2.1547   -0.6387    0.1757 C.2     1  UNL1        0.2276
      3 O          -2.5560   -1.5915    0.8414 O.2     1  UNL1       -0.4980
      4 C           0.1712    0.1148    0.5213 C.2     1  UNL1        0.0377
      5 C           1.6322    0.0980    0.2363 C.ar    1  UNL1        0.1424
      6 C           2.2967    1.2715   -0.1162 C.ar    1  UNL1       -0.2246
      7 C           3.6600    1.2653   -0.3692 C.ar    1  UNL1       -0.1598
      8 C           4.3843    0.0862   -0.2609 C.ar    1  UNL1       -0.1410
      9 C           3.7352   -1.0857    0.0996 C.ar    1  UNL1       -0.1281
     10 C           2.3700   -1.0783    0.3462 C.ar    1  UNL1       -0.2668
     11 H           1.7397    2.1967   -0.2054 H       1  UNL1        0.1512
     12 H           4.1581    2.1842   -0.6524 H       1  UNL1        0.1421
     13 H           5.4494    0.0816   -0.4550 H       1  UNL1        0.1445
     14 H           4.2926   -2.0096    0.1906 H       1  UNL1        0.1427
     15 H           1.8659   -1.9947    0.6283 H       1  UNL1        0.1494
     16 C          -0.2367    0.9677    1.6918 C.3     1  UNL1       -0.3546
     17 H           0.0637    2.0060    1.5302 H       1  UNL1        0.1376
     18 H          -1.3113    0.9515    1.8687 H       1  UNL1        0.1357
     19 H           0.2671    0.6298    2.6006 H       1  UNL1        0.1421
     20 C          -0.3813   -1.4052   -1.4247 C.3     1  UNL1       -0.3501
     21 H          -1.0216   -1.1098   -2.2606 H       1  UNL1        0.1417
     22 H           0.6565   -1.2952   -1.7311 H       1  UNL1        0.1437
     23 H          -0.5752   -2.4628   -1.2314 H       1  UNL1        0.1432
     24 N          -2.9706    0.3396   -0.2664 N.am    1  UNL1       -0.1067
     25 C          -4.3816    0.3206    0.0603 C.3     1  UNL1       -0.2746
     26 C          -2.5338    1.4770   -1.0497 C.3     1  UNL1       -0.2914
     27 H          -4.6046   -0.5659    0.6449 H       1  UNL1        0.1489
     28 H          -4.6447    1.2109    0.6364 H       1  UNL1        0.1376
     29 H          -4.9774    0.3122   -0.8552 H       1  UNL1        0.1401
     30 H          -1.4828    1.3867   -1.3051 H       1  UNL1        0.1709
     31 H          -3.1189    1.5379   -1.9698 H       1  UNL1        0.1461
     32 H          -2.6790    2.4025   -0.4866 H       1  UNL1        0.1445
@<TRIPOS>BOND
     1    21    20    1
     2    31    26    1
     3    22    20    1
     4    20    23    1
     5    20     1    1
     6    30    26    1
     7    26    32    1
     8    26    24    1
     9    29    25    1
    10    12     7    1
    11    13     8    1
    12     7     8   ar
    13     7     6   ar
    14    24    25    1
    15    24     2   am
    16     8     9   ar
    17     1     2    1
    18     1     4    2
    19    11     6    1
    20     6     5   ar
    21    25    28    1
    22    25    27    1
    23     9    14    1
    24     9    10   ar
    25     2     3    2
    26     5    10   ar
    27     5     4    1
    28    10    15    1
    29     4    16    1
    30    17    16    1
    31    16    18    1
    32    16    19    1
