@<TRIPOS>MOLECULE
GS-147-0.out
 20 20 0 0 0
SMALL
MULLIKEN_CHARGES
****
Gaussian 16 # wB97XD def2tzvp, opt=(calcfc, maxcycles=70, maxstep=10), freq=norama
@<TRIPOS>ATOM
      1 C           1.0245   -0.4232   -0.0039 C.2     1  UNL1       -0.0431
      2 C           2.5063   -0.1440   -0.0952 C.2     1  UNL1        0.2505
      3 O           3.0757   -0.1735   -1.1704 O.2     1  UNL1       -0.4308
      4 C           0.0600    0.4836   -0.0186 C.2     1  UNL1       -0.0461
      5 C          -1.3949    0.2266   -0.0041 C.ar    1  UNL1        0.2011
      6 C          -2.1103    0.3234    1.1851 C.ar    1  UNL1       -0.1961
      7 C          -3.4737    0.0757    1.1940 C.ar    1  UNL1       -0.1411
      8 C          -4.1278   -0.2622    0.0174 C.ar    1  UNL1       -0.1327
      9 C          -3.4160   -0.3535   -1.1702 C.ar    1  UNL1       -0.1298
     10 C          -2.0516   -0.1092   -1.1835 C.ar    1  UNL1       -0.2097
     11 H          -1.5972    0.5879    2.1014 H       1  UNL1        0.1543
     12 H          -4.0259    0.1461    2.1221 H       1  UNL1        0.1492
     13 H          -5.1930   -0.4542    0.0262 H       1  UNL1        0.1506
     14 H          -3.9230   -0.6165   -2.0895 H       1  UNL1        0.1496
     15 H          -1.4915   -0.1822   -2.1072 H       1  UNL1        0.1562
     16 BR          0.5446    2.3272   -0.0871 Br      1  UNL1       -0.0372
     17 BR          0.6299   -2.2722    0.0644 Br      1  UNL1       -0.0122
     18 N           3.1056    0.0946    1.0774 N.am    1  UNL1       -0.4250
     19 H           4.0934    0.2849    1.0990 H       1  UNL1        0.2895
     20 H           2.5867    0.1318    1.9366 H       1  UNL1        0.3028
@<TRIPOS>BOND
     1    15    10    1
     2    14     9    1
     3    10     9   ar
     4    10     5   ar
     5     3     2    2
     6     9     8   ar
     7     2     1    1
     8     2    18   am
     9    16     4    1
    10     4     5    1
    11     4     1    2
    12     5     6   ar
    13     1    17    1
    14     8    13    1
    15     8     7   ar
    16    18    19    1
    17    18    20    1
    18     6     7   ar
    19     6    11    1
    20     7    12    1
