@<TRIPOS>MOLECULE
GS-122-0.out
 31 32 0 0 0
SMALL
MULLIKEN_CHARGES
****
Gaussian 16 # wB97XD def2tzvp, opt=(maxcycles=50, maxstep=10), freq=noraman, geom=
@<TRIPOS>ATOM
      1 C           0.2313   -1.0012   -0.0459 C.2     1  UNL1        0.0447
      2 C           0.1236   -2.5080   -0.0940 C.2     1  UNL1        0.1912
      3 O           0.0544   -3.0853   -1.1524 O.2     1  UNL1       -0.3596
      4 C          -0.8346   -0.2078   -0.0613 C.2     1  UNL1        0.0153
      5 C          -0.8212    1.2694   -0.1078 C.ar    1  UNL1        0.1488
      6 C          -0.1445    1.9159   -1.1389 C.ar    1  UNL1       -0.2196
      7 C          -0.0947    3.3001   -1.1826 C.ar    1  UNL1       -0.1457
      8 C          -0.7199    4.0505   -0.1975 C.ar    1  UNL1       -0.1279
      9 C          -1.4026    3.4109    0.8284 C.ar    1  UNL1       -0.1490
     10 C          -1.4594    2.0277    0.8704 C.ar    1  UNL1       -0.2191
     11 H           0.3465    1.3292   -1.9048 H       1  UNL1        0.1616
     12 H           0.4326    3.7926   -1.9895 H       1  UNL1        0.1463
     13 H          -0.6795    5.1317   -0.2306 H       1  UNL1        0.1484
     14 H          -1.8925    3.9914    1.5995 H       1  UNL1        0.1465
     15 H          -1.9935    1.5325    1.6718 H       1  UNL1        0.1541
     16 BR         -2.5842   -0.9859   -0.0546 Br      1  UNL1       -0.0730
     17 C           1.6254   -0.4946    0.0568 C.ar    1  UNL1        0.1176
     18 C           1.9973    0.3623    1.0907 C.ar    1  UNL1       -0.2093
     19 C           3.3014    0.8188    1.1863 C.ar    1  UNL1       -0.1497
     20 C           4.2499    0.4216    0.2537 C.ar    1  UNL1       -0.1232
     21 C           3.8893   -0.4414   -0.7707 C.ar    1  UNL1       -0.1590
     22 C           2.5855   -0.9033   -0.8660 C.ar    1  UNL1       -0.1977
     23 H           1.2596    0.6704    1.8204 H       1  UNL1        0.1610
     24 H           3.5784    1.4846    1.9937 H       1  UNL1        0.1452
     25 H           5.2685    0.7802    0.3286 H       1  UNL1        0.1479
     26 H           4.6244   -0.7570   -1.4998 H       1  UNL1        0.1457
     27 H           2.3072   -1.5741   -1.6693 H       1  UNL1        0.1528
     28 C           0.1737   -3.2063    1.2304 C.3     1  UNL1       -0.3602
     29 H          -0.6713   -2.8801    1.8411 H       1  UNL1        0.1574
     30 H           0.1469   -4.2854    1.0977 H       1  UNL1        0.1446
     31 H           1.0831   -2.9132    1.7599 H       1  UNL1        0.1638
@<TRIPOS>BOND
     1    12     7    1
     2    11     6    1
     3    27    22    1
     4    26    21    1
     5     7     6   ar
     6     7     8   ar
     7     3     2    2
     8     6     5   ar
     9    22    21   ar
    10    22    17   ar
    11    21    20   ar
    12    13     8    1
    13     8     9   ar
    14     5     4    1
    15     5    10   ar
    16     2     1    1
    17     2    28    1
    18     4    16    1
    19     4     1    2
    20     1    17    1
    21    17    18   ar
    22    20    25    1
    23    20    19   ar
    24     9    10   ar
    25     9    14    1
    26    10    15    1
    27    18    19   ar
    28    18    23    1
    29    30    28    1
    30    19    24    1
    31    28    31    1
    32    28    29    1
