@<TRIPOS>MOLECULE
GS-141-0.out
 26 26 0 0 0
SMALL
MULLIKEN_CHARGES
****
Gaussian 16 # wB97XD def2tzvp, opt=(maxcycles=50, maxstep=10), freq=noraman, geom=
@<TRIPOS>ATOM
      1 C          -0.7580    1.0571    0.0287 C.2     1  UNL1       -0.0384
      2 C          -2.2369    0.8696   -0.1858 C.2     1  UNL1        0.3095
      3 O          -2.7516    1.1343   -1.2644 O.2     1  UNL1       -0.4781
      4 C           0.1031    0.0497   -0.0470 C.2     1  UNL1       -0.0307
      5 C           1.5757    0.1506    0.0521 C.ar    1  UNL1        0.1684
      6 C           2.2595   -0.4223    1.1218 C.ar    1  UNL1       -0.1986
      7 C           3.6369   -0.3074    1.2120 C.ar    1  UNL1       -0.1525
      8 C           4.3460    0.3727    0.2306 C.ar    1  UNL1       -0.1347
      9 C           3.6714    0.9389   -0.8406 C.ar    1  UNL1       -0.1247
     10 C           2.2918    0.8279   -0.9307 C.ar    1  UNL1       -0.2417
     11 H           1.7085   -0.9558    1.8866 H       1  UNL1        0.1531
     12 H           4.1587   -0.7494    2.0511 H       1  UNL1        0.1467
     13 H           5.4227    0.4591    0.3011 H       1  UNL1        0.1487
     14 H           4.2186    1.4679   -1.6103 H       1  UNL1        0.1476
     15 H           1.7630    1.2690   -1.7665 H       1  UNL1        0.1566
     16 BR         -0.5246   -1.7359   -0.3648 Br      1  UNL1       -0.0877
     17 C          -0.3579    2.4832    0.2782 C.3     1  UNL1       -0.3448
     18 H          -0.5886    3.0919   -0.5987 H       1  UNL1        0.1508
     19 H          -0.9303    2.8873    1.1161 H       1  UNL1        0.1468
     20 H           0.7022    2.5775    0.4994 H       1  UNL1        0.1495
     21 N          -2.9298    0.4663    0.8861 N.am    1  UNL1       -0.3005
     22 C          -4.3589    0.2434    0.8424 C.3     1  UNL1       -0.2544
     23 H          -2.4231    0.2297    1.7210 H       1  UNL1        0.2820
     24 H          -4.7062    0.0157    1.8468 H       1  UNL1        0.1496
     25 H          -4.8719    1.1351    0.4824 H       1  UNL1        0.1392
     26 H          -4.6071   -0.5899    0.1823 H       1  UNL1        0.1385
@<TRIPOS>BOND
     1    15    10    1
     2    14     9    1
     3     3     2    2
     4    10     9   ar
     5    10     5   ar
     6     9     8   ar
     7    18    17    1
     8    16     4    1
     9     2     1    1
    10     2    21   am
    11     4     1    2
    12     4     5    1
    13     1    17    1
    14     5     6   ar
    15    26    22    1
    16     8    13    1
    17     8     7   ar
    18    17    20    1
    19    17    19    1
    20    25    22    1
    21    22    21    1
    22    22    24    1
    23    21    23    1
    24     6     7   ar
    25     6    11    1
    26     7    12    1
