@<TRIPOS>MOLECULE
GS-140-0.out
 25 25 0 0 0
SMALL
MULLIKEN_CHARGES
****
Gaussian 16 # wB97XD def2tzvp, opt=(maxcycles=50, maxstep=10), freq=noraman, geom=
@<TRIPOS>ATOM
      1 C           0.7610   -1.0085   -0.3408 C.2     1  UNL1       -0.0101
      2 C           2.2375   -0.7583   -0.4157 C.2     1  UNL1        0.3661
      3 O           2.8432   -0.6619   -1.4527 O.2     1  UNL1       -0.4030
      4 C          -0.0991   -0.0246   -0.1077 C.2     1  UNL1       -0.0168
      5 C          -1.5680   -0.1590   -0.0070 C.ar    1  UNL1        0.1566
      6 C          -2.1223   -0.9335    1.0084 C.ar    1  UNL1       -0.2375
      7 C          -3.4981   -1.0784    1.1066 C.ar    1  UNL1       -0.1284
      8 C          -4.3302   -0.4503    0.1924 C.ar    1  UNL1       -0.1313
      9 C          -3.7828    0.3267   -0.8202 C.ar    1  UNL1       -0.1519
     10 C          -2.4095    0.4766   -0.9172 C.ar    1  UNL1       -0.2034
     11 H          -1.4709   -1.4216    1.7225 H       1  UNL1        0.1596
     12 H          -3.9187   -1.6818    1.9007 H       1  UNL1        0.1480
     13 H          -5.4041   -0.5632    0.2688 H       1  UNL1        0.1492
     14 H          -4.4282    0.8175   -1.5373 H       1  UNL1        0.1473
     15 H          -1.9853    1.0862   -1.7055 H       1  UNL1        0.1552
     16 BR          0.5422    1.7640    0.1360 Br      1  UNL1       -0.0803
     17 C           0.3700   -2.4317   -0.6177 C.3     1  UNL1       -0.3516
     18 H           0.8403   -2.7654   -1.5447 H       1  UNL1        0.1516
     19 H           0.7211   -3.0851    0.1842 H       1  UNL1        0.1532
     20 H          -0.7073   -2.5423   -0.7100 H       1  UNL1        0.1524
     21 O           2.7948   -0.7170    0.7859 O.3     1  UNL1       -0.2608
     22 C           4.2098   -0.4967    0.8263 C.3     1  UNL1       -0.2038
     23 H           4.4770   -0.5032    1.8783 H       1  UNL1        0.1514
     24 H           4.7318   -1.2913    0.2953 H       1  UNL1        0.1443
     25 H           4.4522    0.4659    0.3781 H       1  UNL1        0.1439
@<TRIPOS>BOND
     1    15    10    1
     2    18    17    1
     3    14     9    1
     4     3     2    2
     5    10     9   ar
     6    10     5   ar
     7     9     8   ar
     8    20    17    1
     9    17     1    1
    10    17    19    1
    11     2     1    1
    12     2    21    1
    13     1     4    2
    14     4     5    1
    15     4    16    1
    16     5     6   ar
    17     8    13    1
    18     8     7   ar
    19    24    22    1
    20    25    22    1
    21    21    22    1
    22    22    23    1
    23     6     7   ar
    24     6    11    1
    25     7    12    1
