@<TRIPOS>MOLECULE
GS-190-0.out
 26 26 0 0 0
SMALL
MULLIKEN_CHARGES
****
Gaussian 16 # wB97XD def2tzvp, opt=(calcfc, maxcycles=70, maxstep=10), freq=norama
@<TRIPOS>ATOM
      1 C          -0.6595    0.2088   -0.2359 C.2     1  UNL1       -0.1229
      2 C          -2.1114   -0.0247   -0.5743 C.2     1  UNL1        0.2562
      3 O          -2.4778    0.1880   -1.7226 O.2     1  UNL1       -0.4702
      4 C           0.2954   -0.7084   -0.3029 C.2     1  UNL1        0.0591
      5 C           1.7463   -0.5102   -0.1087 C.ar    1  UNL1        0.1962
      6 C           2.3813   -1.0470    1.0075 C.ar    1  UNL1       -0.2139
      7 C           3.7411   -0.8556    1.1898 C.ar    1  UNL1       -0.1400
      8 C           4.4747   -0.1377    0.2551 C.ar    1  UNL1       -0.1346
      9 C           3.8454    0.3901   -0.8628 C.ar    1  UNL1       -0.1235
     10 C           2.4837    0.2058   -1.0459 C.ar    1  UNL1       -0.2389
     11 H           1.8085   -1.6099    1.7342 H       1  UNL1        0.1554
     12 H           4.2289   -1.2680    2.0635 H       1  UNL1        0.1490
     13 H           5.5377    0.0084    0.3978 H       1  UNL1        0.1504
     14 H           4.4148    0.9464   -1.5960 H       1  UNL1        0.1495
     15 H           1.9891    0.6172   -1.9167 H       1  UNL1        0.1616
     16 CL         -0.1848   -2.3547   -0.6427 Cl      1  UNL1       -0.0764
     17 BR         -0.2786    2.0088    0.1959 Br      1  UNL1       -0.0089
     18 N          -2.9167   -0.4257    0.4202 N.am    1  UNL1       -0.0970
     19 C          -4.3241   -0.6579    0.1591 C.3     1  UNL1       -0.2762
     20 C          -2.4840   -0.7004    1.7763 C.3     1  UNL1       -0.2926
     21 H          -4.5486   -0.4010   -0.8709 H       1  UNL1        0.1534
     22 H          -4.5663   -1.7084    0.3331 H       1  UNL1        0.1449
     23 H          -4.9288   -0.0440    0.8291 H       1  UNL1        0.1452
     24 H          -1.4309   -0.4709    1.9052 H       1  UNL1        0.1735
     25 H          -3.0628   -0.0942    2.4752 H       1  UNL1        0.1505
     26 H          -2.6445   -1.7545    2.0119 H       1  UNL1        0.1502
@<TRIPOS>BOND
     1    15    10    1
     2     3     2    2
     3    14     9    1
     4    10     9   ar
     5    10     5   ar
     6    21    19    1
     7     9     8   ar
     8    16     4    1
     9     2     1    1
    10     2    18   am
    11     4     1    2
    12     4     5    1
    13     1    17    1
    14     5     6   ar
    15    19    22    1
    16    19    18    1
    17    19    23    1
    18     8    13    1
    19     8     7   ar
    20    18    20    1
    21     6     7   ar
    22     6    11    1
    23     7    12    1
    24    20    24    1
    25    20    26    1
    26    20    25    1
