@<TRIPOS>MOLECULE
GS-158-0.out
 26 26 0 0 0
SMALL
MULLIKEN_CHARGES
****
Gaussian 16 # wB97XD def2tzvp, opt=(maxcycles=50, maxstep=10), freq=noraman, geom=
@<TRIPOS>ATOM
      1 C           0.6231   -0.7955   -0.2043 C.2     1  UNL1       -0.0054
      2 C           2.0906   -0.6120   -0.5128 C.2     1  UNL1        0.2616
      3 O           2.4509   -0.7224   -1.6770 O.2     1  UNL1       -0.4681
      4 C          -0.2902    0.1640   -0.1683 C.2     1  UNL1       -0.0517
      5 C          -1.7465   -0.0110   -0.0014 C.ar    1  UNL1        0.1868
      6 C          -2.3693    0.3704    1.1837 C.ar    1  UNL1       -0.2105
      7 C          -3.7349    0.1953    1.3366 C.ar    1  UNL1       -0.1420
      8 C          -4.4870   -0.3515    0.3057 C.ar    1  UNL1       -0.1334
      9 C          -3.8697   -0.7255   -0.8790 C.ar    1  UNL1       -0.1247
     10 C          -2.5025   -0.5569   -1.0341 C.ar    1  UNL1       -0.2330
     11 H          -1.7822    0.8005    1.9857 H       1  UNL1        0.1566
     12 H          -4.2131    0.4869    2.2628 H       1  UNL1        0.1486
     13 H          -5.5544   -0.4845    0.4260 H       1  UNL1        0.1503
     14 H          -4.4529   -1.1493   -1.6863 H       1  UNL1        0.1493
     15 H          -2.0170   -0.8487   -1.9568 H       1  UNL1        0.1580
     16 BR          0.3022    1.9661   -0.3426 Br      1  UNL1       -0.0395
     17 CL          0.1840   -2.4613   -0.0018 Cl      1  UNL1       -0.0559
     18 N           2.9089   -0.3700    0.5208 N.am    1  UNL1       -0.0992
     19 C           4.3282   -0.1837    0.2879 C.3     1  UNL1       -0.2746
     20 C           2.4823   -0.2302    1.8994 C.3     1  UNL1       -0.2960
     21 H           4.5439   -0.3277   -0.7656 H       1  UNL1        0.1537
     22 H           4.6236    0.8245    0.5858 H       1  UNL1        0.1447
     23 H           4.8963   -0.9041    0.8792 H       1  UNL1        0.1460
     24 H           1.4189   -0.4227    2.0022 H       1  UNL1        0.1747
     25 H           3.0281   -0.9389    2.5243 H       1  UNL1        0.1516
     26 H           2.6912    0.7815    2.2531 H       1  UNL1        0.1520
@<TRIPOS>BOND
     1    15    10    1
     2    14     9    1
     3     3     2    2
     4    10     9   ar
     5    10     5   ar
     6     9     8   ar
     7    21    19    1
     8     2     1    1
     9     2    18   am
    10    16     4    1
    11     1     4    2
    12     1    17    1
    13     4     5    1
    14     5     6   ar
    15    19    18    1
    16    19    22    1
    17    19    23    1
    18     8    13    1
    19     8     7   ar
    20    18    20    1
    21     6     7   ar
    22     6    11    1
    23     7    12    1
    24    20    24    1
    25    20    26    1
    26    20    25    1
