@<TRIPOS>MOLECULE
GS-19-0.out
 33 34 0 0 0
SMALL
MULLIKEN_CHARGES
****
Gaussian 16 # wB97XD def2tzvp, opt=(calcfc, maxcycles=70, maxstep=10), freq=norama
@<TRIPOS>ATOM
      1 C           0.2960    1.7201   -0.0623 C.2     1  UNL1        0.0177
      2 C           1.7474    2.1119    0.0406 C.2     1  UNL1        0.2206
      3 O           2.2889    2.7833   -0.8281 O.2     1  UNL1       -0.4644
      4 C          -0.0925    0.4378   -0.0349 C.2     1  UNL1        0.1591
      5 C          -1.5264    0.0391   -0.0609 C.ar    1  UNL1        0.0937
      6 C          -1.9817   -0.8702   -1.0147 C.ar    1  UNL1       -0.2146
      7 C          -3.3109   -1.2598   -1.0425 C.ar    1  UNL1       -0.1553
      8 C          -4.2031   -0.7609   -0.1026 C.ar    1  UNL1       -0.1356
      9 C          -3.7570    0.1304    0.8618 C.ar    1  UNL1       -0.1222
     10 C          -2.4282    0.5282    0.8809 C.ar    1  UNL1       -0.2779
     11 H          -1.2869   -1.2716   -1.7428 H       1  UNL1        0.1545
     12 H          -3.6511   -1.9579   -1.7969 H       1  UNL1        0.1427
     13 H          -5.2404   -1.0705   -0.1193 H       1  UNL1        0.1456
     14 H          -4.4437    0.5161    1.6047 H       1  UNL1        0.1433
     15 H          -2.0820    1.2194    1.6393 H       1  UNL1        0.1555
     16 C           0.8740   -0.6951   -0.0039 C.ar    1  UNL1        0.0404
     17 C           0.7594   -1.6841    0.9723 C.ar    1  UNL1       -0.1983
     18 C           1.6558   -2.7393    1.0174 C.ar    1  UNL1       -0.1557
     19 C           2.6696   -2.8334    0.0730 C.ar    1  UNL1       -0.1281
     20 C           2.7788   -1.8667   -0.9154 C.ar    1  UNL1       -0.1527
     21 C           1.8861   -0.8058   -0.9540 C.ar    1  UNL1       -0.1976
     22 H          -0.0348   -1.6188    1.7065 H       1  UNL1        0.1538
     23 H           1.5616   -3.4921    1.7898 H       1  UNL1        0.1427
     24 H           3.3665   -3.6613    0.1041 H       1  UNL1        0.1455
     25 H           3.5582   -1.9400   -1.6633 H       1  UNL1        0.1428
     26 H           1.9704   -0.0569   -1.7319 H       1  UNL1        0.1494
     27 C          -0.6125    2.9005   -0.2504 C.3     1  UNL1       -0.3893
     28 H          -1.6132    2.6014   -0.5524 H       1  UNL1        0.1479
     29 H          -0.6912    3.4849    0.6702 H       1  UNL1        0.1462
     30 H          -0.1929    3.5564   -1.0146 H       1  UNL1        0.1435
     31 N           2.3778    1.7464    1.1708 N.am    1  UNL1       -0.4225
     32 H           3.3598    1.9395    1.2706 H       1  UNL1        0.2774
     33 H           1.9353    1.1431    1.8401 H       1  UNL1        0.2920
@<TRIPOS>BOND
     1    12     7    1
     2    11     6    1
     3    26    21    1
     4    25    20    1
     5     7     6   ar
     6     7     8   ar
     7     6     5   ar
     8    30    27    1
     9    21    20   ar
    10    21    16   ar
    11    20    19   ar
    12     3     2    2
    13    28    27    1
    14    27     1    1
    15    27    29    1
    16    13     8    1
    17     8     9   ar
    18     1     4    2
    19     1     2    1
    20     5     4    1
    21     5    10   ar
    22     4    16    1
    23    16    17   ar
    24     2    31   am
    25    19    24    1
    26    19    18   ar
    27     9    10   ar
    28     9    14    1
    29    10    15    1
    30    17    18   ar
    31    17    22    1
    32    18    23    1
    33    31    32    1
    34    31    33    1
