@<TRIPOS>MOLECULE
GS-105-0.out
 21 21 0 0 0
SMALL
MULLIKEN_CHARGES
****
Gaussian 16 # wB97XD def2tzvp, opt=(calcfc, maxcycles=70, maxstep=10), freq=norama
@<TRIPOS>ATOM
      1 C           1.3733    0.2700   -0.0167 C.2     1  UNL1       -0.0205
      2 C           2.8061    0.6434   -0.0100 C.2     1  UNL1        0.1301
      3 O           3.2466    1.6961    0.3808 O.2     1  UNL1       -0.3604
      4 C           0.3244    1.1043    0.0248 C.2     1  UNL1       -0.0059
      5 C          -1.0770    0.6103    0.0418 C.ar    1  UNL1        0.2179
      6 C          -1.5868   -0.0197    1.1730 C.ar    1  UNL1       -0.2406
      7 C          -2.9059   -0.4445    1.2004 C.ar    1  UNL1       -0.1215
      8 C          -3.7228   -0.2539    0.0951 C.ar    1  UNL1       -0.1443
      9 C          -3.2188    0.3741   -1.0348 C.ar    1  UNL1       -0.1431
     10 C          -1.9047    0.8157   -1.0579 C.ar    1  UNL1       -0.2206
     11 H          -0.9479   -0.1751    2.0335 H       1  UNL1        0.1578
     12 H          -3.2951   -0.9279    2.0874 H       1  UNL1        0.1474
     13 H          -4.7510   -0.5917    0.1151 H       1  UNL1        0.1482
     14 H          -3.8508    0.5257   -1.9004 H       1  UNL1        0.1472
     15 H          -1.5166    1.3111   -1.9397 H       1  UNL1        0.1583
     16 C           0.4593    2.5978    0.0545 C.3     1  UNL1       -0.3404
     17 H          -0.3024    3.0366   -0.5915 H       1  UNL1        0.1474
     18 H           0.2574    2.9518    1.0694 H       1  UNL1        0.1572
     19 H           1.4438    2.9455   -0.2377 H       1  UNL1        0.1449
     20 BR          1.1493   -1.6196   -0.1747 Br      1  UNL1       -0.0798
     21 H           3.4800   -0.1443   -0.3886 H       1  UNL1        0.1207
@<TRIPOS>BOND
     1    15    10    1
     2    14     9    1
     3    10     9   ar
     4    10     5   ar
     5     9     8   ar
     6    17    16    1
     7    21     2    1
     8    19    16    1
     9    20     1    1
    10     1     2    1
    11     1     4    2
    12     2     3    2
    13     4     5    1
    14     4    16    1
    15     5     6   ar
    16    16    18    1
    17     8    13    1
    18     8     7   ar
    19     6     7   ar
    20     6    11    1
    21     7    12    1
