@<TRIPOS>MOLECULE
GS-166-1.out
 36 37 0 0 0
SMALL
MULLIKEN_CHARGES
****
Gaussian 16 # wB97XD def2tzvp, opt=(maxcycles=50, maxstep=1), freq=noraman, scrf=(
@<TRIPOS>ATOM
      1 C           0.6835   -0.1854   -0.2708 C.2     1  UNL1       -0.0775
      2 C           2.1225   -0.5295   -0.5729 C.2     1  UNL1        0.2311
      3 O           2.4814   -0.5882   -1.7445 O.2     1  UNL1       -0.4811
      4 C          -0.2604   -1.1236   -0.2403 C.2     1  UNL1        0.1127
      5 C          -1.7190   -0.9032   -0.1492 C.ar    1  UNL1        0.1323
      6 C          -2.3453   -0.0533   -1.0573 C.ar    1  UNL1       -0.2210
      7 C          -3.7081    0.1814   -0.9698 C.ar    1  UNL1       -0.1439
      8 C          -4.4575   -0.4305    0.0245 C.ar    1  UNL1       -0.1289
      9 C          -3.8399   -1.2862    0.9264 C.ar    1  UNL1       -0.1451
     10 C          -2.4787   -1.5273    0.8368 C.ar    1  UNL1       -0.2305
     11 H          -1.7598    0.4255   -1.8316 H       1  UNL1        0.1624
     12 H          -4.1853    0.8420   -1.6823 H       1  UNL1        0.1460
     13 H          -5.5219   -0.2455    0.0939 H       1  UNL1        0.1481
     14 H          -4.4200   -1.7678    1.7031 H       1  UNL1        0.1462
     15 H          -2.0006   -2.1964    1.5413 H       1  UNL1        0.1507
     16 CL          0.2126   -2.8094   -0.3313 Cl      1  UNL1       -0.0976
     17 C           0.4112    1.2615   -0.0740 C.ar    1  UNL1        0.1765
     18 C          -0.3316    1.7037    1.0194 C.ar    1  UNL1       -0.2347
     19 C          -0.5671    3.0552    1.2093 C.ar    1  UNL1       -0.1486
     20 C          -0.0595    3.9845    0.3120 C.ar    1  UNL1       -0.1292
     21 C           0.6928    3.5537   -0.7711 C.ar    1  UNL1       -0.1530
     22 C           0.9328    2.2016   -0.9607 C.ar    1  UNL1       -0.2213
     23 H          -0.7265    0.9835    1.7247 H       1  UNL1        0.1711
     24 H          -1.1455    3.3834    2.0635 H       1  UNL1        0.1441
     25 H          -0.2447    5.0408    0.4602 H       1  UNL1        0.1466
     26 H           1.0953    4.2725   -1.4733 H       1  UNL1        0.1444
     27 H           1.5189    1.8689   -1.8080 H       1  UNL1        0.1485
     28 N           2.9504   -0.6946    0.4718 N.am    1  UNL1       -0.0838
     29 C           4.3581   -0.9577    0.2504 C.3     1  UNL1       -0.2806
     30 C           2.5361   -0.6550    1.8594 C.3     1  UNL1       -0.2865
     31 H           4.5742   -0.8969   -0.8113 H       1  UNL1        0.1520
     32 H           4.9586   -0.2214    0.7881 H       1  UNL1        0.1411
     33 H           4.6172   -1.9535    0.6170 H       1  UNL1        0.1445
     34 H           1.4603   -0.5346    1.9401 H       1  UNL1        0.1692
     35 H           2.8179   -1.5869    2.3537 H       1  UNL1        0.1473
     36 H           3.0249    0.1744    2.3752 H       1  UNL1        0.1485
@<TRIPOS>BOND
     1    11     6    1
     2    27    22    1
     3     3     2    2
     4    12     7    1
     5    26    21    1
     6     6     7   ar
     7     6     5   ar
     8     7     8   ar
     9    22    21   ar
    10    22    17   ar
    11    31    29    1
    12    21    20   ar
    13     2     1    1
    14     2    28   am
    15    16     4    1
    16     1     4    2
    17     1    17    1
    18     4     5    1
    19     5    10   ar
    20    17    18   ar
    21     8    13    1
    22     8     9   ar
    23    29    28    1
    24    29    33    1
    25    29    32    1
    26    20    25    1
    27    20    19   ar
    28    28    30    1
    29    10     9   ar
    30    10    15    1
    31     9    14    1
    32    18    19   ar
    33    18    23    1
    34    19    24    1
    35    30    34    1
    36    30    35    1
    37    30    36    1
