@<TRIPOS>MOLECULE
GS-187-0.out
 20 20 0 0 0
SMALL
MULLIKEN_CHARGES
****
Gaussian 16 # wB97XD def2tzvp, opt=(maxcycles=50, maxstep=10), freq=noraman, geom=
@<TRIPOS>ATOM
      1 C           1.1060    0.0132   -0.0192 C.2     1  UNL1       -0.0735
      2 C           2.5468    0.4468   -0.1511 C.2     1  UNL1        0.2519
      3 O           3.1063    0.4133   -1.2316 O.2     1  UNL1       -0.4334
      4 C           0.0584    0.8236   -0.0853 C.2     1  UNL1        0.0379
      5 C          -1.3690    0.4417   -0.0526 C.ar    1  UNL1        0.2036
      6 C          -2.1555    0.7670    1.0484 C.ar    1  UNL1       -0.2090
      7 C          -3.4928    0.4060    1.0744 C.ar    1  UNL1       -0.1373
      8 C          -4.0527   -0.2707   -0.0006 C.ar    1  UNL1       -0.1386
      9 C          -3.2722   -0.5875   -1.1028 C.ar    1  UNL1       -0.1218
     10 C          -1.9323   -0.2332   -1.1306 C.ar    1  UNL1       -0.2332
     11 H          -1.7184    1.2981    1.8848 H       1  UNL1        0.1545
     12 H          -4.0990    0.6540    1.9360 H       1  UNL1        0.1495
     13 H          -5.0984   -0.5495    0.0206 H       1  UNL1        0.1506
     14 H          -3.7061   -1.1115   -1.9446 H       1  UNL1        0.1500
     15 H          -1.3198   -0.4799   -1.9886 H       1  UNL1        0.1626
     16 CL          0.3543    2.5387   -0.2437 Cl      1  UNL1       -0.0719
     17 BR          0.9101   -1.8532    0.1942 Br      1  UNL1       -0.0082
     18 N           3.1271    0.8244    0.9942 N.am    1  UNL1       -0.4249
     19 H           4.0892    1.1191    0.9891 H       1  UNL1        0.2890
     20 H           2.6162    0.8525    1.8584 H       1  UNL1        0.3024
@<TRIPOS>BOND
     1    15    10    1
     2    14     9    1
     3     3     2    2
     4    10     9   ar
     5    10     5   ar
     6     9     8   ar
     7    16     4    1
     8     2     1    1
     9     2    18   am
    10     4     5    1
    11     4     1    2
    12     5     6   ar
    13     1    17    1
    14     8    13    1
    15     8     7   ar
    16    19    18    1
    17    18    20    1
    18     6     7   ar
    19     6    11    1
    20     7    12    1
