@<TRIPOS>MOLECULE
GS-165-1.out
 33 34 0 0 0
SMALL
MULLIKEN_CHARGES
****
Gaussian 16 # wB97XD def2tzvp, opt=(maxcycles=50, maxstep=1), freq=noraman, scrf=(
@<TRIPOS>ATOM
      1 C          -0.8316   -0.2458   -0.1411 C.2     1  UNL1       -0.0232
      2 C          -2.2754   -0.6460   -0.3216 C.2     1  UNL1        0.2771
      3 O          -2.7765   -0.7382   -1.4341 O.2     1  UNL1       -0.4705
      4 C           0.1422   -1.1536   -0.1389 C.2     1  UNL1        0.0931
      5 C           1.5953   -0.8810   -0.1109 C.ar    1  UNL1        0.1245
      6 C           2.4147   -1.4614    0.8538 C.ar    1  UNL1       -0.2255
      7 C           3.7692   -1.1731    0.8840 C.ar    1  UNL1       -0.1459
      8 C           4.3206   -0.3138   -0.0566 C.ar    1  UNL1       -0.1302
      9 C           3.5114    0.2546   -1.0296 C.ar    1  UNL1       -0.1425
     10 C           2.1549   -0.0268   -1.0575 C.ar    1  UNL1       -0.2224
     11 H           1.9884   -2.1335    1.5880 H       1  UNL1        0.1508
     12 H           4.3961   -1.6206    1.6446 H       1  UNL1        0.1464
     13 H           5.3799   -0.0919   -0.0336 H       1  UNL1        0.1483
     14 H           3.9368    0.9180   -1.7717 H       1  UNL1        0.1462
     15 H           1.5227    0.4188   -1.8147 H       1  UNL1        0.1635
     16 CL         -0.2694   -2.8562   -0.2109 Cl      1  UNL1       -0.0951
     17 C          -0.5949    1.2119    0.0167 C.ar    1  UNL1        0.1591
     18 C          -1.1542    2.1138   -0.8864 C.ar    1  UNL1       -0.2171
     19 C          -0.9442    3.4759   -0.7375 C.ar    1  UNL1       -0.1520
     20 C          -0.1840    3.9538    0.3203 C.ar    1  UNL1       -0.1282
     21 C           0.3613    3.0619    1.2332 C.ar    1  UNL1       -0.1512
     22 C           0.1558    1.7001    1.0844 C.ar    1  UNL1       -0.2155
     23 H          -1.7461    1.7437   -1.7139 H       1  UNL1        0.1489
     24 H          -1.3755    4.1657   -1.4518 H       1  UNL1        0.1446
     25 H          -0.0215    5.0177    0.4361 H       1  UNL1        0.1468
     26 H           0.9466    3.4275    2.0673 H       1  UNL1        0.1442
     27 H           0.5791    1.0075    1.8006 H       1  UNL1        0.1604
     28 N          -2.9560   -0.8341    0.8147 N.am    1  UNL1       -0.2861
     29 C          -4.3578   -1.1939    0.8243 C.3     1  UNL1       -0.2596
     30 H          -2.4632   -0.7566    1.6870 H       1  UNL1        0.2824
     31 H          -4.6929   -1.2561    1.8562 H       1  UNL1        0.1499
     32 H          -4.9508   -0.4424    0.3021 H       1  UNL1        0.1395
     33 H          -4.5162   -2.1585    0.3397 H       1  UNL1        0.1392
@<TRIPOS>BOND
     1    15    10    1
     2    14     9    1
     3    23    18    1
     4    24    19    1
     5     3     2    2
     6    10     9   ar
     7    10     5   ar
     8     9     8   ar
     9    18    19   ar
    10    18    17   ar
    11    19    20   ar
    12     2     1    1
    13     2    28   am
    14    16     4    1
    15     1     4    2
    16     1    17    1
    17     4     5    1
    18     5     6   ar
    19     8    13    1
    20     8     7   ar
    21    17    22   ar
    22    32    29    1
    23    20    25    1
    24    20    21   ar
    25    33    29    1
    26    28    29    1
    27    28    30    1
    28    29    31    1
    29     6     7   ar
    30     6    11    1
    31     7    12    1
    32    22    21   ar
    33    22    27    1
    34    21    26    1
