@<TRIPOS>MOLECULE
GS-14-1.out
 36 37 0 0 0
SMALL
MULLIKEN_CHARGES
****
Gaussian 16 # wB97XD def2tzvp, opt=(maxcycles=70, maxstep=1), freq=noraman, scrf=(
@<TRIPOS>ATOM
      1 C           0.2096   -1.5711   -0.3238 C.2     1  UNL1       -0.2257
      2 C           1.6783   -1.7703   -0.5077 C.2     1  UNL1        0.2416
      3 O           2.0590   -2.2894   -1.5577 O.2     1  UNL1       -0.4986
      4 C          -0.4361   -0.4073   -0.1979 C.2     1  UNL1        0.0911
      5 C          -1.9184   -0.3844   -0.0987 C.ar    1  UNL1        0.1113
      6 C          -2.6032   -1.3446    0.6448 C.ar    1  UNL1       -0.2403
      7 C          -3.9878   -1.3327    0.7126 C.ar    1  UNL1       -0.1416
      8 C          -4.7105   -0.3582    0.0396 C.ar    1  UNL1       -0.1363
      9 C          -4.0389    0.6087   -0.6958 C.ar    1  UNL1       -0.1465
     10 C          -2.6548    0.5998   -0.7580 C.ar    1  UNL1       -0.2361
     11 H          -2.0451   -2.0957    1.1899 H       1  UNL1        0.1633
     12 H          -4.5025   -2.0818    1.3008 H       1  UNL1        0.1438
     13 H          -5.7916   -0.3472    0.0942 H       1  UNL1        0.1461
     14 H          -4.5949    1.3739   -1.2225 H       1  UNL1        0.1439
     15 H          -2.1381    1.3596   -1.3313 H       1  UNL1        0.1586
     16 C           0.2709    0.8978   -0.1486 C.ar    1  UNL1        0.1638
     17 C          -0.0494    1.8240    0.8438 C.ar    1  UNL1       -0.2328
     18 C           0.6382    3.0221    0.9407 C.ar    1  UNL1       -0.1429
     19 C           1.6478    3.3208    0.0356 C.ar    1  UNL1       -0.1315
     20 C           1.9595    2.4163   -0.9687 C.ar    1  UNL1       -0.1519
     21 C           1.2742    1.2144   -1.0615 C.ar    1  UNL1       -0.2088
     22 H          -0.8349    1.5951    1.5536 H       1  UNL1        0.1542
     23 H           0.3864    3.7245    1.7251 H       1  UNL1        0.1436
     24 H           2.1839    4.2584    0.1088 H       1  UNL1        0.1461
     25 H           2.7353    2.6481   -1.6874 H       1  UNL1        0.1438
     26 H           1.5153    0.5181   -1.8550 H       1  UNL1        0.1502
     27 H          -0.3605   -2.4863   -0.4359 H       1  UNL1        0.1691
     28 N           2.5269   -1.4033    0.4724 N.am    1  UNL1       -0.0889
     29 C           3.9571   -1.4711    0.2525 C.3     1  UNL1       -0.2763
     30 C           2.1314   -0.8733    1.7608 C.3     1  UNL1       -0.3131
     31 H           4.1530   -1.7860   -0.7671 H       1  UNL1        0.1492
     32 H           4.3992   -0.4861    0.4210 H       1  UNL1        0.1362
     33 H           4.4161   -2.1803    0.9450 H       1  UNL1        0.1440
     34 H           1.0761   -1.0491    1.9435 H       1  UNL1        0.1655
     35 H           2.7079   -1.3726    2.5414 H       1  UNL1        0.1525
     36 H           2.3276    0.2008    1.8152 H       1  UNL1        0.1536
@<TRIPOS>BOND
     1    26    21    1
     2    25    20    1
     3     3     2    2
     4    15    10    1
     5    14     9    1
     6    21    20   ar
     7    21    16   ar
     8    20    19   ar
     9    31    29    1
    10    10     9   ar
    11    10     5   ar
    12     9     8   ar
    13     2     1    1
    14     2    28   am
    15    27     1    1
    16     1     4    2
    17     4    16    1
    18     4     5    1
    19    16    17   ar
    20     5     6   ar
    21    19    24    1
    22    19    18   ar
    23     8    13    1
    24     8     7   ar
    25    29    32    1
    26    29    28    1
    27    29    33    1
    28    28    30    1
    29     6     7   ar
    30     6    11    1
    31     7    12    1
    32    17    18   ar
    33    17    22    1
    34    18    23    1
    35    30    36    1
    36    30    34    1
    37    30    35    1
