@<TRIPOS>MOLECULE
GS-163-0.out
 30 31 0 0 0
SMALL
MULLIKEN_CHARGES
****
Gaussian 16 # wB97XD def2tzvp, opt=(maxcycles=50, maxstep=10), freq=noraman, geom=
@<TRIPOS>ATOM
      1 C          -0.8844   -0.7375    0.0130 C.2     1  UNL1       -0.0343
      2 C          -2.0562   -1.6873    0.0890 C.2     1  UNL1        0.2477
      3 O          -2.5144   -2.0433    1.1626 O.2     1  UNL1       -0.4454
      4 C           0.3697   -1.1822    0.0485 C.2     1  UNL1        0.0888
      5 C           1.5914   -0.3521    0.1198 C.ar    1  UNL1        0.1357
      6 C           1.7186    0.6030    1.1250 C.ar    1  UNL1       -0.2224
      7 C           2.8484    1.4027    1.1897 C.ar    1  UNL1       -0.1416
      8 C           3.8601    1.2558    0.2518 C.ar    1  UNL1       -0.1320
      9 C           3.7421    0.2987   -0.7468 C.ar    1  UNL1       -0.1438
     10 C           2.6169   -0.5067   -0.8094 C.ar    1  UNL1       -0.2258
     11 H           0.9278    0.7191    1.8548 H       1  UNL1        0.1636
     12 H           2.9388    2.1405    1.9765 H       1  UNL1        0.1464
     13 H           4.7414    1.8824    0.3012 H       1  UNL1        0.1483
     14 H           4.5290    0.1788   -1.4803 H       1  UNL1        0.1466
     15 H           2.5287   -1.2532   -1.5887 H       1  UNL1        0.1508
     16 CL          0.6709   -2.9086    0.0450 Cl      1  UNL1       -0.0937
     17 C          -1.2442    0.7000   -0.0892 C.ar    1  UNL1        0.1705
     18 C          -0.7010    1.5008   -1.0919 C.ar    1  UNL1       -0.2160
     19 C          -1.0504    2.8378   -1.1883 C.ar    1  UNL1       -0.1486
     20 C          -1.9500    3.3907   -0.2875 C.ar    1  UNL1       -0.1301
     21 C          -2.5052    2.5961    0.7050 C.ar    1  UNL1       -0.1508
     22 C          -2.1597    1.2571    0.8014 C.ar    1  UNL1       -0.2152
     23 H          -0.0024    1.0719   -1.7987 H       1  UNL1        0.1610
     24 H          -0.6210    3.4486   -1.9722 H       1  UNL1        0.1446
     25 H          -2.2213    4.4360   -0.3625 H       1  UNL1        0.1471
     26 H          -3.2100    3.0194    1.4093 H       1  UNL1        0.1450
     27 H          -2.5929    0.6405    1.5789 H       1  UNL1        0.1496
     28 N          -2.5671   -2.0490   -1.0965 N.am    1  UNL1       -0.4257
     29 H          -3.3645   -2.6614   -1.1300 H       1  UNL1        0.2824
     30 H          -2.1503   -1.7485   -1.9593 H       1  UNL1        0.2973
@<TRIPOS>BOND
     1    24    19    1
     2    30    28    1
     3    23    18    1
     4    15    10    1
     5    14     9    1
     6    19    18   ar
     7    19    20   ar
     8    29    28    1
     9    28     2   am
    10    18    17   ar
    11    10     9   ar
    12    10     5   ar
    13     9     8   ar
    14    25    20    1
    15    20    21   ar
    16    17     1    1
    17    17    22   ar
    18     1     4    2
    19     1     2    1
    20    16     4    1
    21     4     5    1
    22     2     3    2
    23     5     6   ar
    24     8    13    1
    25     8     7   ar
    26    21    22   ar
    27    21    26    1
    28    22    27    1
    29     6     7   ar
    30     6    11    1
    31     7    12    1
