@<TRIPOS>MOLECULE
GS-134-0.out
 26 26 0 0 0
SMALL
MULLIKEN_CHARGES
****
Gaussian 16 # wB97XD def2tzvp, opt=(calcfc, maxcycles=70, maxstep=10), freq=norama
@<TRIPOS>ATOM
      1 C           0.5973   -1.1285   -0.0085 C.2     1  UNL1       -0.2281
      2 C           2.0611   -1.0854   -0.3244 C.2     1  UNL1        0.3126
      3 O           2.4239   -1.5069   -1.4187 O.2     1  UNL1       -0.4899
      4 C          -0.2641   -0.1300   -0.1352 C.2     1  UNL1       -0.0080
      5 C          -1.7266   -0.2643    0.0194 C.ar    1  UNL1        0.2147
      6 C          -2.4764    0.6734    0.7273 C.ar    1  UNL1       -0.2312
      7 C          -3.8384    0.4939    0.9017 C.ar    1  UNL1       -0.1406
      8 C          -4.4724   -0.6170    0.3623 C.ar    1  UNL1       -0.1424
      9 C          -3.7356   -1.5481   -0.3541 C.ar    1  UNL1       -0.1277
     10 C          -2.3716   -1.3730   -0.5272 C.ar    1  UNL1       -0.2692
     11 H          -1.9909    1.5431    1.1512 H       1  UNL1        0.1564
     12 H          -4.4069    1.2254    1.4615 H       1  UNL1        0.1475
     13 H          -5.5383   -0.7519    0.4944 H       1  UNL1        0.1489
     14 H          -4.2239   -2.4105   -0.7895 H       1  UNL1        0.1485
     15 H          -1.8041   -2.0924   -1.1037 H       1  UNL1        0.1647
     16 BR          0.3781    1.6181   -0.5587 Br      1  UNL1       -0.0738
     17 H           0.2104   -2.1092    0.2473 H       1  UNL1        0.1934
     18 N           2.9032   -0.6232    0.6148 N.am    1  UNL1       -0.1097
     19 C           4.3237   -0.5413    0.3399 C.3     1  UNL1       -0.2719
     20 C           2.4960   -0.1460    1.9208 C.3     1  UNL1       -0.2925
     21 H           4.5190   -0.9038   -0.6640 H       1  UNL1        0.1505
     22 H           4.6581    0.4951    0.4242 H       1  UNL1        0.1397
     23 H           4.8790   -1.1459    1.0599 H       1  UNL1        0.1432
     24 H           1.4382   -0.3268    2.0852 H       1  UNL1        0.1688
     25 H           3.0640   -0.6684    2.6928 H       1  UNL1        0.1471
     26 H           2.6906    0.9253    2.0105 H       1  UNL1        0.1491
@<TRIPOS>BOND
     1     3     2    2
     2    15    10    1
     3    14     9    1
     4    21    19    1
     5    16     4    1
     6    10     9   ar
     7    10     5   ar
     8     9     8   ar
     9     2     1    1
    10     2    18   am
    11     4     1    2
    12     4     5    1
    13     1    17    1
    14     5     6   ar
    15    19    22    1
    16    19    18    1
    17    19    23    1
    18     8    13    1
    19     8     7   ar
    20    18    20    1
    21     6     7   ar
    22     6    11    1
    23     7    12    1
    24    20    26    1
    25    20    24    1
    26    20    25    1
