@<TRIPOS>MOLECULE
GS-174-0.out
 26 26 0 0 0
SMALL
MULLIKEN_CHARGES
****
Gaussian 16 # wB97XD def2tzvp, opt=(maxcycles=50, maxstep=10), freq=noraman, geom=
@<TRIPOS>ATOM
      1 C          -0.6857    0.8395   -0.2115 C.2     1  UNL1       -0.2271
      2 C          -2.1466    0.8794    0.1149 C.2     1  UNL1        0.3108
      3 O          -2.5239    1.6951    0.9516 O.2     1  UNL1       -0.4930
      4 C           0.1941   -0.0341    0.2583 C.2     1  UNL1        0.0373
      5 C           1.6549    0.0516    0.0567 C.ar    1  UNL1        0.2073
      6 C           2.2809    1.2975    0.0707 C.ar    1  UNL1       -0.2638
      7 C           3.6426    1.4019   -0.1634 C.ar    1  UNL1       -0.1293
      8 C           4.3974    0.2642   -0.4087 C.ar    1  UNL1       -0.1431
      9 C           3.7831   -0.9802   -0.4129 C.ar    1  UNL1       -0.1381
     10 C           2.4225   -1.0881   -0.1766 C.ar    1  UNL1       -0.2314
     11 H           1.7026    2.1872    0.2844 H       1  UNL1        0.1625
     12 H           4.1158    2.3751   -0.1432 H       1  UNL1        0.1484
     13 H           5.4618    0.3457   -0.5878 H       1  UNL1        0.1487
     14 H           4.3655   -1.8730   -0.6012 H       1  UNL1        0.1476
     15 H           1.9524   -2.0627   -0.1816 H       1  UNL1        0.1523
     16 CL         -0.3668   -1.4069    1.1866 Cl      1  UNL1       -0.0991
     17 H          -0.3206    1.6749   -0.7974 H       1  UNL1        0.1890
     18 N          -2.9738    0.0488   -0.5420 N.am    1  UNL1       -0.1087
     19 C          -4.3896    0.0386   -0.2325 C.3     1  UNL1       -0.2740
     20 C          -2.5564   -0.8911   -1.5624 C.3     1  UNL1       -0.2923
     21 H          -4.5889    0.7371    0.5736 H       1  UNL1        0.1503
     22 H          -4.9686    0.3252   -1.1131 H       1  UNL1        0.1435
     23 H          -4.6932   -0.9654    0.0718 H       1  UNL1        0.1396
     24 H          -1.5108   -0.7459   -1.8161 H       1  UNL1        0.1686
     25 H          -2.6987   -1.9170   -1.2152 H       1  UNL1        0.1483
     26 H          -3.1575   -0.7421   -2.4614 H       1  UNL1        0.1458
@<TRIPOS>BOND
     1    26    20    1
     2    24    20    1
     3    20    25    1
     4    20    18    1
     5    22    19    1
     6    17     1    1
     7    14     9    1
     8    13     8    1
     9    18    19    1
    10    18     2   am
    11     9     8   ar
    12     9    10   ar
    13     8     7   ar
    14    19    23    1
    15    19    21    1
    16     1     2    1
    17     1     4    2
    18    15    10    1
    19    10     5   ar
    20     7    12    1
    21     7     6   ar
    22     5     6   ar
    23     5     4    1
    24     6    11    1
    25     2     3    2
    26     4    16    1
