@<TRIPOS>MOLECULE
GS-13-1.out
 33 34 0 0 0
SMALL
MULLIKEN_CHARGES
****
Gaussian 16 # wB97XD def2tzvp, opt=(maxcycles=70, maxstep=1), freq=noraman, scrf=(
@<TRIPOS>ATOM
      1 C          -0.2740   -1.6718   -0.1951 C.2     1  UNL1       -0.2121
      2 C          -1.7369   -1.9533   -0.2405 C.2     1  UNL1        0.2898
      3 O          -2.2003   -2.6957   -1.1023 O.2     1  UNL1       -0.4967
      4 C           0.3132   -0.4747   -0.0879 C.2     1  UNL1        0.1599
      5 C           1.7938   -0.3656   -0.0398 C.ar    1  UNL1        0.1026
      6 C           2.5634   -1.3090    0.6403 C.ar    1  UNL1       -0.2438
      7 C           3.9459   -1.2141    0.6582 C.ar    1  UNL1       -0.1375
      8 C           4.5824   -0.1728   -0.0021 C.ar    1  UNL1       -0.1373
      9 C           3.8264    0.7775   -0.6739 C.ar    1  UNL1       -0.1494
     10 C           2.4439    0.6862   -0.6857 C.ar    1  UNL1       -0.2252
     11 H           2.0742   -2.1125    1.1765 H       1  UNL1        0.1624
     12 H           4.5271   -1.9511    1.1979 H       1  UNL1        0.1447
     13 H           5.6622   -0.0976    0.0138 H       1  UNL1        0.1466
     14 H           4.3147    1.5946   -1.1897 H       1  UNL1        0.1443
     15 H           1.8617    1.4340   -1.2097 H       1  UNL1        0.1623
     16 C          -0.4570    0.7975   -0.0500 C.ar    1  UNL1        0.0149
     17 C          -0.2622    1.7040    0.9902 C.ar    1  UNL1       -0.1903
     18 C          -0.9938    2.8797    1.0451 C.ar    1  UNL1       -0.1553
     19 C          -1.9156    3.1737    0.0498 C.ar    1  UNL1       -0.1185
     20 C          -2.1018    2.2859   -0.9999 C.ar    1  UNL1       -0.1604
     21 C          -1.3776    1.1049   -1.0486 C.ar    1  UNL1       -0.1726
     22 H           0.4612    1.4810    1.7651 H       1  UNL1        0.1529
     23 H          -0.8421    3.5692    1.8658 H       1  UNL1        0.1447
     24 H          -2.4827    4.0950    0.0895 H       1  UNL1        0.1471
     25 H          -2.8113    2.5135   -1.7852 H       1  UNL1        0.1444
     26 H          -1.5227    0.4141   -1.8702 H       1  UNL1        0.1510
     27 H           0.3363   -2.5569   -0.3317 H       1  UNL1        0.1700
     28 N          -2.4957   -1.3998    0.7189 N.am    1  UNL1       -0.2783
     29 C          -3.9361   -1.5163    0.7235 C.3     1  UNL1       -0.2547
     30 H          -2.0599   -0.7713    1.3702 H       1  UNL1        0.2747
     31 H          -4.3193   -1.0678    1.6366 H       1  UNL1        0.1477
     32 H          -4.3770   -1.0056   -0.1358 H       1  UNL1        0.1352
     33 H          -4.2344   -2.5641    0.6910 H       1  UNL1        0.1366
@<TRIPOS>BOND
     1    26    21    1
     2    25    20    1
     3    15    10    1
     4    14     9    1
     5     3     2    2
     6    21    20   ar
     7    21    16   ar
     8    20    19   ar
     9    10     9   ar
    10    10     5   ar
    11     9     8   ar
    12    27     1    1
    13     2     1    1
    14     2    28   am
    15     1     4    2
    16    32    29    1
    17     4    16    1
    18     4     5    1
    19    16    17   ar
    20     5     6   ar
    21     8    13    1
    22     8     7   ar
    23    19    24    1
    24    19    18   ar
    25     6     7   ar
    26     6    11    1
    27     7    12    1
    28    33    29    1
    29    28    29    1
    30    28    30    1
    31    29    31    1
    32    17    18   ar
    33    17    22    1
    34    18    23    1
