@<TRIPOS>MOLECULE
GS-182-0.out
 29 29 0 0 0
SMALL
MULLIKEN_CHARGES
****
Gaussian 16 # wB97XD def2tzvp, opt=(maxcycles=50, maxstep=10), freq=noraman, geom=
@<TRIPOS>ATOM
      1 C          -0.6890    0.7464   -0.0847 C.2     1  UNL1       -0.1085
      2 C          -2.1355    0.6299    0.3225 C.2     1  UNL1        0.2669
      3 O          -2.5062    1.2207    1.3323 O.2     1  UNL1       -0.4903
      4 C           0.2172   -0.1400    0.3111 C.2     1  UNL1        0.0547
      5 C           1.6780   -0.0665    0.0948 C.ar    1  UNL1        0.1814
      6 C           2.3475   -1.0788   -0.5897 C.ar    1  UNL1       -0.2180
      7 C           3.7130   -0.9935   -0.8036 C.ar    1  UNL1       -0.1496
      8 C           4.4269    0.0988   -0.3281 C.ar    1  UNL1       -0.1337
      9 C           3.7685    1.1048    0.3626 C.ar    1  UNL1       -0.1221
     10 C           2.4003    1.0225    0.5748 C.ar    1  UNL1       -0.2626
     11 H           1.7942   -1.9336   -0.9588 H       1  UNL1        0.1525
     12 H           4.2221   -1.7815   -1.3436 H       1  UNL1        0.1465
     13 H           5.4948    0.1625   -0.4934 H       1  UNL1        0.1485
     14 H           4.3200    1.9555    0.7420 H       1  UNL1        0.1472
     15 H           1.8869    1.8049    1.1194 H       1  UNL1        0.1613
     16 CL         -0.3072   -1.5753    1.1821 Cl      1  UNL1       -0.1159
     17 C          -0.3803    1.9761   -0.8874 C.3     1  UNL1       -0.3419
     18 H          -0.5575    2.8712   -0.2874 H       1  UNL1        0.1534
     19 H           0.6487    1.9890   -1.2379 H       1  UNL1        0.1526
     20 H          -1.0458    2.0283   -1.7525 H       1  UNL1        0.1505
     21 N          -2.9595   -0.0653   -0.4805 N.am    1  UNL1       -0.1012
     22 C          -4.3664   -0.1825   -0.1543 C.3     1  UNL1       -0.2760
     23 C          -2.5326   -0.7902   -1.6598 C.3     1  UNL1       -0.2965
     24 H          -4.5897    0.4362    0.7087 H       1  UNL1        0.1503
     25 H          -4.9706    0.1433   -1.0030 H       1  UNL1        0.1411
     26 H          -4.6149   -1.2224    0.0712 H       1  UNL1        0.1412
     27 H          -1.4763   -0.6287   -1.8521 H       1  UNL1        0.1730
     28 H          -2.7030   -1.8609   -1.5250 H       1  UNL1        0.1464
     29 H          -3.1044   -0.4542   -2.5271 H       1  UNL1        0.1487
@<TRIPOS>BOND
     1    29    23    1
     2    27    23    1
     3    20    17    1
     4    23    28    1
     5    23    21    1
     6    12     7    1
     7    19    17    1
     8    25    22    1
     9    11     6    1
    10    17    18    1
    11    17     1    1
    12     7     6   ar
    13     7     8   ar
    14     6     5   ar
    15    13     8    1
    16    21    22    1
    17    21     2   am
    18     8     9   ar
    19    22    26    1
    20    22    24    1
    21     1     4    2
    22     1     2    1
    23     5     4    1
    24     5    10   ar
    25     4    16    1
    26     2     3    2
    27     9    10   ar
    28     9    14    1
    29    10    15    1
