@<TRIPOS>MOLECULE
GS-104-0.out
 34 35 0 0 0
SMALL
MULLIKEN_CHARGES
****
Gaussian 16 # wB97XD def2tzvp, opt=(calcfc, maxcycles=70, maxstep=10), freq=norama
@<TRIPOS>ATOM
      1 C           0.0796   -0.9080   -0.2962 C.2     1  UNL1        0.0199
      2 C          -1.3249   -1.3051    0.0660 C.2     1  UNL1        0.2694
      3 O          -1.5624   -2.4499    0.3955 O.2     1  UNL1       -0.3920
      4 C           0.8581   -0.2665    0.5756 C.2     1  UNL1       -0.0034
      5 C           2.2734    0.0755    0.2645 C.ar    1  UNL1        0.1323
      6 C           3.2236   -0.9217    0.0598 C.ar    1  UNL1       -0.2653
      7 C           4.5448   -0.5971   -0.2112 C.ar    1  UNL1       -0.1288
      8 C           4.9352    0.7323   -0.2809 C.ar    1  UNL1       -0.1392
      9 C           3.9971    1.7343   -0.0745 C.ar    1  UNL1       -0.1592
     10 C           2.6783    1.4077    0.2025 C.ar    1  UNL1       -0.2239
     11 H           2.9212   -1.9606    0.1138 H       1  UNL1        0.1487
     12 H           5.2707   -1.3853   -0.3673 H       1  UNL1        0.1429
     13 H           5.9657    0.9870   -0.4938 H       1  UNL1        0.1448
     14 H           4.2928    2.7745   -0.1298 H       1  UNL1        0.1424
     15 H           1.9522    2.1965    0.3601 H       1  UNL1        0.1524
     16 C           0.3906    0.1595    1.9411 C.3     1  UNL1       -0.3462
     17 H           1.0172   -0.2959    2.7117 H       1  UNL1        0.1446
     18 H           0.4825    1.2423    2.0554 H       1  UNL1        0.1405
     19 H          -0.6449   -0.1132    2.1404 H       1  UNL1        0.1345
     20 C           0.4594   -1.3257   -1.6891 C.3     1  UNL1       -0.3511
     21 H          -0.2869   -0.9729   -2.4064 H       1  UNL1        0.1422
     22 H           1.4294   -0.9278   -1.9788 H       1  UNL1        0.1450
     23 H           0.4924   -2.4148   -1.7695 H       1  UNL1        0.1456
     24 C          -2.4118   -0.2906   -0.0529 C.ar    1  UNL1        0.0217
     25 C          -2.1457    1.0106   -0.4730 C.ar    1  UNL1       -0.1705
     26 C          -3.1746    1.9331   -0.5803 C.ar    1  UNL1       -0.1559
     27 C          -4.4734    1.5611   -0.2662 C.ar    1  UNL1       -0.1227
     28 C          -4.7462    0.2642    0.1542 C.ar    1  UNL1       -0.1250
     29 C          -3.7208   -0.6575    0.2584 C.ar    1  UNL1       -0.2146
     30 H          -1.1311    1.3014   -0.7127 H       1  UNL1        0.1754
     31 H          -2.9625    2.9425   -0.9080 H       1  UNL1        0.1481
     32 H          -5.2768    2.2822   -0.3483 H       1  UNL1        0.1516
     33 H          -5.7603   -0.0238    0.3994 H       1  UNL1        0.1493
     34 H          -3.9190   -1.6706    0.5827 H       1  UNL1        0.1462
@<TRIPOS>BOND
     1    21    20    1
     2    22    20    1
     3    23    20    1
     4    20     1    1
     5    31    26    1
     6    30    25    1
     7    26    25   ar
     8    26    27   ar
     9    13     8    1
    10    25    24   ar
    11    12     7    1
    12    32    27    1
    13     1     2    1
    14     1     4    2
    15     8     7   ar
    16     8     9   ar
    17    27    28   ar
    18     7     6   ar
    19    14     9    1
    20     9    10   ar
    21    24     2    1
    22    24    29   ar
    23     6    11    1
    24     6     5   ar
    25     2     3    2
    26    28    29   ar
    27    28    33    1
    28    10     5   ar
    29    10    15    1
    30    29    34    1
    31     5     4    1
    32     4    16    1
    33    16    18    1
    34    16    19    1
    35    16    17    1
