@<TRIPOS>MOLECULE
GS-196-1.out
 22 22 0 0 0
SMALL
MULLIKEN_CHARGES
****
Gaussian 16 # wB97XD def2tzvp, opt=(maxcycles=50, maxstep=1), freq=noraman, scrf=(
@<TRIPOS>ATOM
      1 C          -0.8696    0.5092   -0.1949 C.2     1  UNL1        0.0201
      2 C          -2.3469    0.2566   -0.3034 C.2     1  UNL1        0.3532
      3 O          -2.9629    0.4049   -1.3248 O.2     1  UNL1       -0.3841
      4 C           0.0528   -0.4366   -0.0497 C.2     1  UNL1        0.0212
      5 C           1.5130   -0.2367    0.0412 C.ar    1  UNL1        0.1873
      6 C           2.0484    0.5184    1.0803 C.ar    1  UNL1       -0.2358
      7 C           3.4194    0.7007    1.1709 C.ar    1  UNL1       -0.1279
      8 C           4.2607    0.1346    0.2245 C.ar    1  UNL1       -0.1341
      9 C           3.7294   -0.6217   -0.8114 C.ar    1  UNL1       -0.1379
     10 C           2.3609   -0.8136   -0.9009 C.ar    1  UNL1       -0.2217
     11 H           1.3912    0.9571    1.8199 H       1  UNL1        0.1670
     12 H           3.8299    1.2847    1.9844 H       1  UNL1        0.1501
     13 H           5.3311    0.2793    0.2953 H       1  UNL1        0.1510
     14 H           4.3828   -1.0650   -1.5516 H       1  UNL1        0.1499
     15 H           1.9477   -1.4087   -1.7055 H       1  UNL1        0.1568
     16 CL         -0.4757   -2.0958    0.0139 Cl      1  UNL1       -0.0651
     17 CL         -0.4563    2.1755   -0.3916 Cl      1  UNL1       -0.0476
     18 O          -2.8638   -0.1105    0.8545 O.3     1  UNL1       -0.2513
     19 C          -4.2689   -0.4003    0.8616 C.3     1  UNL1       -0.2008
     20 H          -4.5034   -0.6766    1.8844 H       1  UNL1        0.1541
     21 H          -4.8352    0.4803    0.5630 H       1  UNL1        0.1479
     22 H          -4.4830   -1.2252    0.1839 H       1  UNL1        0.1477
@<TRIPOS>BOND
     1    15    10    1
     2    14     9    1
     3     3     2    2
     4    10     9   ar
     5    10     5   ar
     6     9     8   ar
     7    17     1    1
     8     2     1    1
     9     2    18    1
    10     1     4    2
    11     4    16    1
    12     4     5    1
    13     5     6   ar
    14    22    19    1
    15     8    13    1
    16     8     7   ar
    17    21    19    1
    18    18    19    1
    19    19    20    1
    20     6     7   ar
    21     6    11    1
    22     7    12    1
