@<TRIPOS>MOLECULE
GS-188-0.out
 22 22 0 0 0
SMALL
MULLIKEN_CHARGES
****
Gaussian 16 # wB97XD def2tzvp, opt=(maxcycles=50, maxstep=10), freq=noraman, geom=
@<TRIPOS>ATOM
      1 C          -0.8211    0.1472   -0.1395 C.2     1  UNL1       -0.0436
      2 C          -2.2803   -0.1813   -0.2662 C.2     1  UNL1        0.3457
      3 O          -2.8788   -0.1329   -1.3075 O.2     1  UNL1       -0.3839
      4 C           0.1454   -0.7585   -0.0644 C.2     1  UNL1        0.0419
      5 C           1.5966   -0.5073    0.0480 C.ar    1  UNL1        0.1829
      6 C           2.1110    0.0886    1.1951 C.ar    1  UNL1       -0.2297
      7 C           3.4733    0.3195    1.3046 C.ar    1  UNL1       -0.1290
      8 C           4.3250   -0.0405    0.2706 C.ar    1  UNL1       -0.1324
      9 C           3.8138   -0.6380   -0.8734 C.ar    1  UNL1       -0.1397
     10 C           2.4541   -0.8776   -0.9840 C.ar    1  UNL1       -0.2132
     11 H           1.4437    0.3679    2.0004 H       1  UNL1        0.1658
     12 H           3.8688    0.7803    2.2004 H       1  UNL1        0.1500
     13 H           5.3885    0.1423    0.3565 H       1  UNL1        0.1510
     14 H           4.4757   -0.9195   -1.6820 H       1  UNL1        0.1499
     15 H           2.0551   -1.3482   -1.8739 H       1  UNL1        0.1562
     16 CL         -0.3112   -2.4428   -0.1136 Cl      1  UNL1       -0.0673
     17 BR         -0.4732    1.9993   -0.1995 Br      1  UNL1       -0.0008
     18 O          -2.8059   -0.4956    0.9039 O.3     1  UNL1       -0.2503
     19 C          -4.2003   -0.8338    0.9059 C.3     1  UNL1       -0.2031
     20 H          -4.4448   -1.0524    1.9403 H       1  UNL1        0.1542
     21 H          -4.7901    0.0058    0.5419 H       1  UNL1        0.1479
     22 H          -4.3734   -1.7071    0.2791 H       1  UNL1        0.1476
@<TRIPOS>BOND
     1    15    10    1
     2    14     9    1
     3     3     2    2
     4    10     9   ar
     5    10     5   ar
     6     9     8   ar
     7     2     1    1
     8     2    18    1
     9    17     1    1
    10     1     4    2
    11    16     4    1
    12     4     5    1
    13     5     6   ar
    14     8    13    1
    15     8     7   ar
    16    22    19    1
    17    21    19    1
    18    18    19    1
    19    19    20    1
    20     6     7   ar
    21     6    11    1
    22     7    12    1
