@<TRIPOS>MOLECULE
GS-133-0.out
 23 23 0 0 0
SMALL
MULLIKEN_CHARGES
****
Gaussian 16 # wB97XD def2tzvp, opt=(maxcycles=50, maxstep=10), freq=noraman, geom=
@<TRIPOS>ATOM
      1 C          -0.7454   -1.1584    0.1775 C.2     1  UNL1       -0.2118
      2 C          -2.2291   -1.1757   -0.0043 C.2     1  UNL1        0.3705
      3 O          -2.7294   -1.8557   -0.8920 O.2     1  UNL1       -0.4839
      4 C           0.0873   -0.1427   -0.0079 C.2     1  UNL1       -0.0291
      5 C           1.5588   -0.2612    0.0717 C.ar    1  UNL1        0.2208
      6 C           2.3325    0.6918    0.7319 C.ar    1  UNL1       -0.2282
      7 C           3.7038    0.5303    0.8363 C.ar    1  UNL1       -0.1386
      8 C           4.3227   -0.5768    0.2719 C.ar    1  UNL1       -0.1449
      9 C           3.5615   -1.5226   -0.3980 C.ar    1  UNL1       -0.1276
     10 C           2.1879   -1.3664   -0.4996 C.ar    1  UNL1       -0.2649
     11 H           1.8591    1.5591    1.1739 H       1  UNL1        0.1566
     12 H           4.2914    1.2730    1.3602 H       1  UNL1        0.1482
     13 H           5.3957   -0.6974    0.3487 H       1  UNL1        0.1492
     14 H           4.0371   -2.3822   -0.8522 H       1  UNL1        0.1490
     15 H           1.6004   -2.0978   -1.0397 H       1  UNL1        0.1664
     16 BR         -0.5711    1.5920   -0.4615 Br      1  UNL1       -0.0676
     17 H          -0.3141   -2.1250    0.4152 H       1  UNL1        0.1907
     18 N          -2.9474   -0.4618    0.8702 N.am    1  UNL1       -0.3126
     19 C          -4.3903   -0.3810    0.7988 C.3     1  UNL1       -0.2521
     20 H          -2.4610    0.0799    1.5624 H       1  UNL1        0.2822
     21 H          -4.7476    0.1991    1.6455 H       1  UNL1        0.1497
     22 H          -4.7106    0.1034   -0.1252 H       1  UNL1        0.1393
     23 H          -4.8320   -1.3770    0.8385 H       1  UNL1        0.1387
@<TRIPOS>BOND
     1    15    10    1
     2     3     2    2
     3    14     9    1
     4    10     9   ar
     5    10     5   ar
     6    16     4    1
     7     9     8   ar
     8    22    19    1
     9     4     5    1
    10     4     1    2
    11     2     1    1
    12     2    18   am
    13     5     6   ar
    14     1    17    1
    15     8    13    1
    16     8     7   ar
    17     6     7   ar
    18     6    11    1
    19    19    23    1
    20    19    18    1
    21    19    21    1
    22     7    12    1
    23    18    20    1
