@<TRIPOS>MOLECULE
GS-15-4.out
 40 42 0 0 0
SMALL
MULLIKEN_CHARGES
****
Gaussian 16 # wB97XD def2tzvp, opt=(calcfc, maxcycles=70, maxstep=5), freq=noraman
@<TRIPOS>ATOM
      1 C          -0.7534   -1.6019    0.2131 C.2     1  UNL1       -0.2301
      2 C           0.7209   -1.7590    0.3510 C.2     1  UNL1        0.3315
      3 O           1.1814   -2.5942    1.1142 O.2     1  UNL1       -0.4727
      4 C          -1.4474   -0.4597    0.1232 C.2     1  UNL1        0.1772
      5 C          -2.9239   -0.4872   -0.0256 C.ar    1  UNL1        0.0952
      6 C          -3.7110    0.4793    0.6008 C.ar    1  UNL1       -0.2200
      7 C          -5.0920    0.4439    0.4944 C.ar    1  UNL1       -0.1502
      8 C          -5.7082   -0.5487   -0.2543 C.ar    1  UNL1       -0.1343
      9 C          -4.9343   -1.5052   -0.8963 C.ar    1  UNL1       -0.1377
     10 C          -3.5537   -1.4745   -0.7834 C.ar    1  UNL1       -0.2402
     11 H          -3.2381    1.2592    1.1844 H       1  UNL1        0.1641
     12 H          -5.6882    1.1953    0.9962 H       1  UNL1        0.1450
     13 H          -6.7868   -0.5720   -0.3442 H       1  UNL1        0.1474
     14 H          -5.4064   -2.2734   -1.4954 H       1  UNL1        0.1455
     15 H          -2.9571   -2.2114   -1.3062 H       1  UNL1        0.1635
     16 C          -0.8052    0.8809    0.1967 C.ar    1  UNL1       -0.0007
     17 C          -0.9727    1.7937   -0.8427 C.ar    1  UNL1       -0.1890
     18 C          -0.3373    3.0251   -0.8048 C.ar    1  UNL1       -0.1442
     19 C           0.4545    3.3671    0.2824 C.ar    1  UNL1       -0.1278
     20 C           0.6072    2.4728    1.3323 C.ar    1  UNL1       -0.1427
     21 C          -0.0180    1.2368    1.2892 C.ar    1  UNL1       -0.1803
     22 H          -1.5926    1.5302   -1.6911 H       1  UNL1        0.1532
     23 H          -0.4620    3.7193   -1.6260 H       1  UNL1        0.1451
     24 H           0.9480    4.3299    0.3131 H       1  UNL1        0.1475
     25 H           1.2163    2.7369    2.1872 H       1  UNL1        0.1447
     26 H           0.1056    0.5375    2.1069 H       1  UNL1        0.1532
     27 H          -1.2831   -2.5452    0.2690 H       1  UNL1        0.1697
     28 N           1.4789   -0.9521   -0.4406 N.am    1  UNL1       -0.2377
     29 C           2.8588   -0.7008   -0.3583 C.ar    1  UNL1        0.3165
     30 C           3.3082    0.5374   -0.8172 C.ar    1  UNL1       -0.3010
     31 C           4.6557    0.8483   -0.7809 C.ar    1  UNL1       -0.1109
     32 C           5.5721   -0.0671   -0.2806 C.ar    1  UNL1       -0.1823
     33 C           5.1227   -1.2968    0.1751 C.ar    1  UNL1       -0.0933
     34 C           3.7747   -1.6250    0.1369 C.ar    1  UNL1       -0.3188
     35 H           0.9645   -0.2902   -0.9985 H       1  UNL1        0.2653
     36 H           2.5932    1.2604   -1.1937 H       1  UNL1        0.1639
     37 H           4.9890    1.8138   -1.1396 H       1  UNL1        0.1444
     38 H           6.6260    0.1768   -0.2481 H       1  UNL1        0.1432
     39 H           5.8286   -2.0205    0.5632 H       1  UNL1        0.1448
     40 H           3.4330   -2.5854    0.4877 H       1  UNL1        0.1530
@<TRIPOS>BOND
     1    22    17    1
     2    23    18    1
     3    14     9    1
     4    15    10    1
     5    36    30    1
     6    37    31    1
     7    35    28    1
     8     9    10   ar
     9     9     8   ar
    10    17    18   ar
    11    17    16   ar
    12    30    31   ar
    13    30    29   ar
    14    18    19   ar
    15    10     5   ar
    16    31    32   ar
    17    28    29    1
    18    28     2   am
    19    29    34   ar
    20    13     8    1
    21    32    38    1
    22    32    33   ar
    23     8     7   ar
    24     5     4    1
    25     5     6   ar
    26     4    16    1
    27     4     1    2
    28    34    33   ar
    29    34    40    1
    30    33    39    1
    31    16    21   ar
    32     1    27    1
    33     1     2    1
    34    19    24    1
    35    19    20   ar
    36     2     3    2
    37     7     6   ar
    38     7    12    1
    39     6    11    1
    40    21    20   ar
    41    21    26    1
    42    20    25    1
