@<TRIPOS>MOLECULE
GS-159-0.out
 30 31 0 0 0
SMALL
MULLIKEN_CHARGES
****
Gaussian 16 # wB97XD def2tzvp, opt=(calcfc, maxcycles=70, maxstep=10), freq=norama
@<TRIPOS>ATOM
      1 C           0.4546    0.9093   -0.1468 C.2     1  UNL1        0.0073
      2 C          -0.9990    0.8633   -0.5591 C.2     1  UNL1        0.3604
      3 O          -1.3374    1.2674   -1.6532 O.2     1  UNL1       -0.4345
      4 C           1.3076   -0.1049   -0.1901 C.2     1  UNL1       -0.0540
      5 C           2.7494   -0.0480    0.1250 C.ar    1  UNL1        0.1584
      6 C           3.2327   -0.6057    1.3049 C.ar    1  UNL1       -0.2013
      7 C           4.5858   -0.5446    1.5958 C.ar    1  UNL1       -0.1444
      8 C           5.4624    0.0643    0.7082 C.ar    1  UNL1       -0.1320
      9 C           4.9831    0.6146   -0.4717 C.ar    1  UNL1       -0.1272
     10 C           3.6293    0.5602   -0.7646 C.ar    1  UNL1       -0.2243
     11 H           2.5479   -1.0833    1.9946 H       1  UNL1        0.1554
     12 H           4.9564   -0.9735    2.5178 H       1  UNL1        0.1492
     13 H           6.5197    0.1085    0.9361 H       1  UNL1        0.1507
     14 H           5.6638    1.0881   -1.1672 H       1  UNL1        0.1497
     15 H           3.2510    0.9899   -1.6836 H       1  UNL1        0.1584
     16 BR          0.6652   -1.8114   -0.7401 Br      1  UNL1       -0.0326
     17 CL          0.9608    2.4925    0.3428 Cl      1  UNL1       -0.0518
     18 N          -1.8134    0.3777    0.4025 N.am    1  UNL1       -0.2617
     19 C          -3.2077    0.1819    0.3679 C.ar    1  UNL1        0.3117
     20 C          -3.7865   -0.4229    1.4831 C.ar    1  UNL1       -0.2974
     21 C          -5.1505   -0.6459    1.5252 C.ar    1  UNL1       -0.0977
     22 C          -5.9551   -0.2706    0.4576 C.ar    1  UNL1       -0.1802
     23 C          -5.3762    0.3301   -0.6485 C.ar    1  UNL1       -0.1120
     24 C          -4.0087    0.5618   -0.7055 C.ar    1  UNL1       -0.2880
     25 H          -1.3574    0.0787    1.2500 H       1  UNL1        0.2825
     26 H          -3.1639   -0.7194    2.3190 H       1  UNL1        0.1484
     27 H          -5.5852   -1.1164    2.3977 H       1  UNL1        0.1486
     28 H          -7.0224   -0.4456    0.4898 H       1  UNL1        0.1456
     29 H          -5.9926    0.6281   -1.4872 H       1  UNL1        0.1469
     30 H          -3.5676    1.0302   -1.5700 H       1  UNL1        0.1658
@<TRIPOS>BOND
     1    15    10    1
     2     3     2    2
     3    30    24    1
     4    29    23    1
     5    14     9    1
     6    10     9   ar
     7    10     5   ar
     8    16     4    1
     9    24    23   ar
    10    24    19   ar
    11    23    22   ar
    12     2     1    1
    13     2    18   am
    14     9     8   ar
    15     4     1    2
    16     4     5    1
    17     1    17    1
    18     5     6   ar
    19    19    18    1
    20    19    20   ar
    21    18    25    1
    22    22    28    1
    23    22    21   ar
    24     8    13    1
    25     8     7   ar
    26     6     7   ar
    27     6    11    1
    28    20    21   ar
    29    20    26    1
    30    21    27    1
    31     7    12    1
