@<TRIPOS>MOLECULE
GS-135-0.out
 30 31 0 0 0
SMALL
MULLIKEN_CHARGES
****
Gaussian 16 # wB97XD def2tzvp, opt=(maxcycles=50, maxstep=10), freq=noraman, geom=
@<TRIPOS>ATOM
      1 C          -0.5651    1.1653   -0.3633 C.2     1  UNL1       -0.2324
      2 C           0.8961    1.1471   -0.6744 C.2     1  UNL1        0.4125
      3 O           1.3020    1.6593   -1.7034 O.2     1  UNL1       -0.4610
      4 C          -1.3835    0.1344   -0.1853 C.2     1  UNL1       -0.0195
      5 C          -2.8308    0.2784    0.0775 C.ar    1  UNL1        0.2072
      6 C          -3.2656    1.2631    0.9639 C.ar    1  UNL1       -0.2508
      7 C          -4.6191    1.4504    1.1953 C.ar    1  UNL1       -0.1319
      8 C          -5.5531    0.6566    0.5468 C.ar    1  UNL1       -0.1402
      9 C          -5.1268   -0.3303   -0.3314 C.ar    1  UNL1       -0.1367
     10 C          -3.7750   -0.5239   -0.5604 C.ar    1  UNL1       -0.2348
     11 H          -2.5394    1.8732    1.4856 H       1  UNL1        0.1690
     12 H          -4.9425    2.2136    1.8913 H       1  UNL1        0.1492
     13 H          -6.6101    0.8013    0.7296 H       1  UNL1        0.1498
     14 H          -5.8502   -0.9536   -0.8410 H       1  UNL1        0.1487
     15 H          -3.4518   -1.2964   -1.2462 H       1  UNL1        0.1586
     16 BR         -0.7419   -1.6601   -0.2840 Br      1  UNL1       -0.0587
     17 H          -1.0049    2.1561   -0.3884 H       1  UNL1        0.1948
     18 N           1.6781    0.5787    0.2750 N.am    1  UNL1       -0.2759
     19 C           3.0679    0.3673    0.2784 C.ar    1  UNL1        0.3169
     20 C           3.6035   -0.2834    1.3906 C.ar    1  UNL1       -0.3047
     21 C           4.9617   -0.5307    1.4691 C.ar    1  UNL1       -0.0963
     22 C           5.8070   -0.1344    0.4412 C.ar    1  UNL1       -0.1851
     23 C           5.2726    0.5108   -0.6623 C.ar    1  UNL1       -0.1086
     24 C           3.9114    0.7667   -0.7557 C.ar    1  UNL1       -0.2947
     25 H           1.1903    0.2258    1.0826 H       1  UNL1        0.2770
     26 H           2.9501   -0.5967    2.1963 H       1  UNL1        0.1466
     27 H           5.3600   -1.0367    2.3392 H       1  UNL1        0.1474
     28 H           6.8700   -0.3275    0.5019 H       1  UNL1        0.1444
     29 H           5.9202    0.8248   -1.4713 H       1  UNL1        0.1456
     30 H           3.5056    1.2699   -1.6177 H       1  UNL1        0.1634
@<TRIPOS>BOND
     1     3     2    2
     2    30    24    1
     3    29    23    1
     4    15    10    1
     5    14     9    1
     6    24    23   ar
     7    24    19   ar
     8     2     1    1
     9     2    18   am
    10    23    22   ar
    11    10     9   ar
    12    10     5   ar
    13    17     1    1
    14     1     4    2
    15     9     8   ar
    16    16     4    1
    17     4     5    1
    18     5     6   ar
    19    18    19    1
    20    18    25    1
    21    19    20   ar
    22    22    28    1
    23    22    21   ar
    24     8    13    1
    25     8     7   ar
    26     6     7   ar
    27     6    11    1
    28     7    12    1
    29    20    21   ar
    30    20    26    1
    31    21    27    1
