@<TRIPOS>MOLECULE
GS-115-0.out
 23 23 0 0 0
SMALL
MULLIKEN_CHARGES
****
Gaussian 16 # wB97XD def2tzvp, opt=(calcfc, maxcycles=70, maxstep=10), freq=norama
@<TRIPOS>ATOM
      1 C          -1.2797   -0.1238    0.0252 C.2     1  UNL1       -0.0230
      2 C          -2.7501    0.1909    0.0900 C.2     1  UNL1        0.2996
      3 O          -3.1706    1.1178    0.7653 O.2     1  UNL1       -0.4585
      4 C          -0.3023    0.7848    0.0307 C.2     1  UNL1       -0.0073
      5 C           1.1317    0.3874    0.0154 C.ar    1  UNL1        0.1951
      6 C           1.9052    0.5939   -1.1227 C.ar    1  UNL1       -0.2243
      7 C           3.2486    0.2497   -1.1288 C.ar    1  UNL1       -0.1430
      8 C           3.8352   -0.2875    0.0080 C.ar    1  UNL1       -0.1458
      9 C           3.0715   -0.4827    1.1502 C.ar    1  UNL1       -0.1251
     10 C           1.7256   -0.1496    1.1535 C.ar    1  UNL1       -0.2311
     11 H           1.4522    1.0169   -2.0114 H       1  UNL1        0.1549
     12 H           3.8381    0.4044   -2.0235 H       1  UNL1        0.1458
     13 H           4.8850   -0.5515    0.0046 H       1  UNL1        0.1470
     14 H           3.5238   -0.8970    2.0422 H       1  UNL1        0.1460
     15 H           1.1291   -0.3072    2.0437 H       1  UNL1        0.1526
     16 C          -0.5348    2.2679    0.0353 C.3     1  UNL1       -0.3353
     17 H           0.0887    2.7243   -0.7360 H       1  UNL1        0.1431
     18 H          -1.5728    2.5387   -0.1232 H       1  UNL1        0.1408
     19 H          -0.2085    2.6817    0.9928 H       1  UNL1        0.1470
     20 CL         -0.9074   -1.8326   -0.0935 Cl      1  UNL1       -0.1067
     21 N          -3.5563   -0.5973   -0.6395 N.am    1  UNL1       -0.4424
     22 H          -4.5476   -0.4349   -0.6082 H       1  UNL1        0.2853
     23 H          -3.2078   -1.3699   -1.1772 H       1  UNL1        0.2854
@<TRIPOS>BOND
     1    12     7    1
     2    11     6    1
     3    23    21    1
     4     7     6   ar
     5     7     8   ar
     6     6     5   ar
     7    17    16    1
     8    21    22    1
     9    21     2   am
    10    18    16    1
    11    20     1    1
    12    13     8    1
    13     8     9   ar
    14     5     4    1
    15     5    10   ar
    16     1     4    2
    17     1     2    1
    18     4    16    1
    19    16    19    1
    20     2     3    2
    21     9    10   ar
    22     9    14    1
    23    10    15    1
