@<TRIPOS>MOLECULE
GS-155-0.out
 20 20 0 0 0
SMALL
MULLIKEN_CHARGES
****
Gaussian 16 # wB97XD def2tzvp, opt=(calcfc, maxcycles=70, maxstep=10), freq=norama
@<TRIPOS>ATOM
      1 C          -1.0352    0.8516    0.0615 C.2     1  UNL1        0.0325
      2 C          -2.5376    0.7148   -0.0465 C.2     1  UNL1        0.2581
      3 O          -3.0955    0.8847   -1.1145 O.2     1  UNL1       -0.4310
      4 C          -0.1547   -0.1366   -0.0119 C.2     1  UNL1       -0.0667
      5 C           1.3161   -0.0027    0.0037 C.ar    1  UNL1        0.1965
      6 C           2.0476   -0.4135    1.1143 C.ar    1  UNL1       -0.2042
      7 C           3.4265   -0.2805    1.1235 C.ar    1  UNL1       -0.1403
      8 C           4.0824    0.2535    0.0227 C.ar    1  UNL1       -0.1369
      9 C           3.3558    0.6567   -1.0882 C.ar    1  UNL1       -0.1237
     10 C           1.9754    0.5300   -1.0997 C.ar    1  UNL1       -0.2264
     11 H           1.5353   -0.8338    1.9709 H       1  UNL1        0.1556
     12 H           3.9901   -0.5949    1.9924 H       1  UNL1        0.1492
     13 H           5.1601    0.3539    0.0307 H       1  UNL1        0.1505
     14 H           3.8635    1.0709   -1.9496 H       1  UNL1        0.1497
     15 H           1.4050    0.8444   -1.9645 H       1  UNL1        0.1592
     16 BR         -0.8036   -1.9190   -0.1843 Br      1  UNL1       -0.0356
     17 CL         -0.5279    2.4998    0.2355 Cl      1  UNL1       -0.0537
     18 N          -3.1616    0.4402    1.1047 N.am    1  UNL1       -0.4262
     19 H          -4.1630    0.3422    1.1142 H       1  UNL1        0.2901
     20 H          -2.6524    0.2870    1.9568 H       1  UNL1        0.3034
@<TRIPOS>BOND
     1    15    10    1
     2    14     9    1
     3     3     2    2
     4    10     9   ar
     5    10     5   ar
     6     9     8   ar
     7    16     4    1
     8     2     1    1
     9     2    18   am
    10     4     5    1
    11     4     1    2
    12     5     6   ar
    13     8    13    1
    14     8     7   ar
    15     1    17    1
    16    18    19    1
    17    18    20    1
    18     6     7   ar
    19     6    11    1
    20     7    12    1
