@<TRIPOS>MOLECULE
GS-137-0.out
 21 21 0 0 0
SMALL
MULLIKEN_CHARGES
****
Gaussian 16 # wB97XD def2tzvp, opt=(calcfc, maxcycles=70, maxstep=10), freq=norama
@<TRIPOS>ATOM
      1 C           1.2829    1.0839    0.1491 C.2     1  UNL1       -0.0273
      2 C           2.7475    0.9133    0.0508 C.2     1  UNL1        0.1503
      3 O           3.5237    1.8323    0.1774 O.2     1  UNL1       -0.3727
      4 C           0.4389    0.0509    0.0251 C.2     1  UNL1       -0.0004
      5 C          -1.0356    0.1513    0.0213 C.ar    1  UNL1        0.2068
      6 C          -1.6700    0.9112   -0.9582 C.ar    1  UNL1       -0.2444
      7 C          -3.0520    1.0183   -0.9723 C.ar    1  UNL1       -0.1169
      8 C          -3.8094    0.3751   -0.0048 C.ar    1  UNL1       -0.1401
      9 C          -3.1812   -0.3830    0.9742 C.ar    1  UNL1       -0.1417
     10 C          -1.8018   -0.5035    0.9831 C.ar    1  UNL1       -0.2062
     11 H          -1.0779    1.4145   -1.7119 H       1  UNL1        0.1621
     12 H          -3.5361    1.6060   -1.7415 H       1  UNL1        0.1498
     13 H          -4.8883    0.4618   -0.0141 H       1  UNL1        0.1503
     14 H          -3.7679   -0.8851    1.7326 H       1  UNL1        0.1490
     15 H          -1.3155   -1.1019    1.7433 H       1  UNL1        0.1580
     16 BR          1.0500   -1.7502   -0.1894 Br      1  UNL1       -0.0621
     17 C           0.8136    2.4891    0.3962 C.3     1  UNL1       -0.3855
     18 H           1.4212    2.9392    1.1815 H       1  UNL1        0.1458
     19 H           0.9435    3.0991   -0.5001 H       1  UNL1        0.1502
     20 H          -0.2316    2.5257    0.6902 H       1  UNL1        0.1565
     21 H           3.1153   -0.1021   -0.1565 H       1  UNL1        0.1186
@<TRIPOS>BOND
     1    12     7    1
     2    11     6    1
     3     7     6   ar
     4     7     8   ar
     5     6     5   ar
     6    19    17    1
     7    16     4    1
     8    21     2    1
     9    13     8    1
    10     8     9   ar
    11     5     4    1
    12     5    10   ar
    13     4     1    2
    14     2     1    1
    15     2     3    2
    16     1    17    1
    17    17    20    1
    18    17    18    1
    19     9    10   ar
    20     9    14    1
    21    10    15    1
