@<TRIPOS>MOLECULE
GS-112-2.out
 31 32 0 0 0
SMALL
MULLIKEN_CHARGES
****
Gaussian 16 # wB97XD def2tzvp, opt=(maxcycles=50, maxstep=8), freq=noraman, scrf=(
@<TRIPOS>ATOM
      1 C          -0.0179   -0.4973    0.4400 C.2     1  UNL1       -0.0098
      2 C          -1.4262   -0.7362    0.9228 C.2     1  UNL1        0.2857
      3 O          -1.6270   -1.5450    1.8012 O.2     1  UNL1       -0.3664
      4 C           0.8037    0.4304    0.9126 C.2     1  UNL1       -0.0158
      5 C           2.2027    0.5953    0.4396 C.ar    1  UNL1        0.1554
      6 C           2.5455    1.6907   -0.3475 C.ar    1  UNL1       -0.2221
      7 C           3.8524    1.8615   -0.7786 C.ar    1  UNL1       -0.1526
      8 C           4.8305    0.9467   -0.4153 C.ar    1  UNL1       -0.1326
      9 C           4.4962   -0.1409    0.3790 C.ar    1  UNL1       -0.1371
     10 C           3.1881   -0.3167    0.8040 C.ar    1  UNL1       -0.2383
     11 H           1.7840    2.4070   -0.6319 H       1  UNL1        0.1557
     12 H           4.1067    2.7117   -1.3988 H       1  UNL1        0.1450
     13 H           5.8514    1.0820   -0.7494 H       1  UNL1        0.1469
     14 H           5.2556   -0.8561    0.6686 H       1  UNL1        0.1452
     15 H           2.9261   -1.1674    1.4212 H       1  UNL1        0.1519
     16 C           0.3559    1.3998    1.9715 C.3     1  UNL1       -0.3308
     17 H           0.4708    2.4222    1.6049 H       1  UNL1        0.1502
     18 H          -0.6809    1.2564    2.2718 H       1  UNL1        0.1415
     19 H           0.9903    1.2992    2.8545 H       1  UNL1        0.1526
     20 BR          0.4476   -1.7090   -0.9486 Br      1  UNL1       -0.0523
     21 C          -2.5241    0.0310    0.2791 C.ar    1  UNL1        0.0207
     22 C          -3.8408   -0.2315    0.6578 C.ar    1  UNL1       -0.2127
     23 C          -4.8818    0.4737    0.0841 C.ar    1  UNL1       -0.1236
     24 C          -4.6163    1.4477   -0.8718 C.ar    1  UNL1       -0.1185
     25 C          -3.3096    1.7142   -1.2531 C.ar    1  UNL1       -0.1557
     26 C          -2.2644    1.0074   -0.6804 C.ar    1  UNL1       -0.1656
     27 H          -4.0325   -0.9917    1.4034 H       1  UNL1        0.1495
     28 H          -5.9024    0.2674    0.3791 H       1  UNL1        0.1514
     29 H          -5.4324    1.9999   -1.3202 H       1  UNL1        0.1535
     30 H          -3.1039    2.4728   -1.9967 H       1  UNL1        0.1499
     31 H          -1.2454    1.2187   -0.9776 H       1  UNL1        0.1786
@<TRIPOS>BOND
     1    30    25    1
     2    12     7    1
     3    29    24    1
     4    25    24   ar
     5    25    26   ar
     6    31    26    1
     7    20     1    1
     8    24    23   ar
     9     7     8   ar
    10     7     6   ar
    11    13     8    1
    12    26    21   ar
    13    11     6    1
    14     8     9   ar
    15     6     5   ar
    16    23    28    1
    17    23    22   ar
    18    21    22   ar
    19    21     2    1
    20     9    14    1
    21     9    10   ar
    22     5    10   ar
    23     5     4    1
    24     1     4    2
    25     1     2    1
    26    22    27    1
    27    10    15    1
    28     4    16    1
    29     2     3    2
    30    17    16    1
    31    16    18    1
    32    16    19    1
