@<TRIPOS>MOLECULE
GS-103-0.out
 36 37 0 0 0
SMALL
MULLIKEN_CHARGES
****
Gaussian 16 # wB97XD def2tzvp, opt=(calcfc, maxcycles=70, maxstep=10), freq=norama
@<TRIPOS>ATOM
      1 C          -0.6719    0.8016   -0.3055 C.2     1  UNL1       -0.0236
      2 C           0.7882    1.0275   -0.0237 C.2     1  UNL1        0.3246
      3 O           1.1964    2.1046    0.3791 O.2     1  UNL1       -0.4678
      4 C          -1.4037   -0.0282    0.4420 C.2     1  UNL1        0.0074
      5 C          -2.8643   -0.2078    0.2054 C.ar    1  UNL1        0.1226
      6 C          -3.3567   -1.4285   -0.2501 C.ar    1  UNL1       -0.2113
      7 C          -4.7164   -1.6104   -0.4537 C.ar    1  UNL1       -0.1598
      8 C          -5.6049   -0.5767   -0.1921 C.ar    1  UNL1       -0.1395
      9 C          -5.1248    0.6395    0.2721 C.ar    1  UNL1       -0.1319
     10 C          -3.7638    0.8215    0.4695 C.ar    1  UNL1       -0.2480
     11 H          -2.6686   -2.2398   -0.4571 H       1  UNL1        0.1506
     12 H          -5.0827   -2.5620   -0.8180 H       1  UNL1        0.1429
     13 H          -6.6666   -0.7191   -0.3484 H       1  UNL1        0.1451
     14 H          -5.8113    1.4503    0.4813 H       1  UNL1        0.1434
     15 H          -3.3908    1.7726    0.8301 H       1  UNL1        0.1484
     16 C          -0.8678   -0.8263    1.6005 C.3     1  UNL1       -0.3522
     17 H          -0.9824   -1.8968    1.4123 H       1  UNL1        0.1446
     18 H           0.1812   -0.6267    1.8101 H       1  UNL1        0.1346
     19 H          -1.4467   -0.6002    2.4989 H       1  UNL1        0.1434
     20 C          -1.1802    1.6348   -1.4484 C.3     1  UNL1       -0.3696
     21 H          -1.1285    2.6967   -1.1981 H       1  UNL1        0.1419
     22 H          -0.5603    1.4822   -2.3355 H       1  UNL1        0.1406
     23 H          -2.2092    1.3893   -1.7000 H       1  UNL1        0.1435
     24 N           1.5829   -0.0383   -0.3082 N.am    1  UNL1       -0.2695
     25 C           2.9735   -0.1848   -0.1699 C.ar    1  UNL1        0.3139
     26 C           3.5111   -1.4361   -0.4752 C.ar    1  UNL1       -0.3035
     27 C           4.8714   -1.6594   -0.3665 C.ar    1  UNL1       -0.0984
     28 C           5.7185   -0.6404    0.0488 C.ar    1  UNL1       -0.1849
     29 C           5.1830    0.6012    0.3513 C.ar    1  UNL1       -0.1119
     30 C           3.8196    0.8410    0.2462 C.ar    1  UNL1       -0.2942
     31 H           1.0948   -0.8538   -0.6413 H       1  UNL1        0.2761
     32 H           2.8564   -2.2370   -0.7987 H       1  UNL1        0.1451
     33 H           5.2703   -2.6366   -0.6074 H       1  UNL1        0.1464
     34 H           6.7831   -0.8145    0.1347 H       1  UNL1        0.1437
     35 H           5.8317    1.4053    0.6757 H       1  UNL1        0.1446
     36 H           3.4120    1.8101    0.4825 H       1  UNL1        0.1624
@<TRIPOS>BOND
     1    22    20    1
     2    23    20    1
     3    20    21    1
     4    20     1    1
     5    12     7    1
     6    32    26    1
     7    31    24    1
     8    33    27    1
     9    26    27   ar
    10    26    25   ar
    11    11     6    1
    12     7     6   ar
    13     7     8   ar
    14    27    28   ar
    15    13     8    1
    16    24    25    1
    17    24     2   am
    18     1     2    1
    19     1     4    2
    20     6     5   ar
    21     8     9   ar
    22    25    30   ar
    23     2     3    2
    24    28    34    1
    25    28    29   ar
    26     5     4    1
    27     5    10   ar
    28    30    29   ar
    29    30    36    1
    30     9    10   ar
    31     9    14    1
    32    29    35    1
    33     4    16    1
    34    10    15    1
    35    17    16    1
    36    16    18    1
    37    16    19    1
