@<TRIPOS>MOLECULE
GS-173-0.out
 23 23 0 0 0
SMALL
MULLIKEN_CHARGES
****
Gaussian 16 # wB97XD def2tzvp, opt=(calcfc, maxcycles=70, maxstep=10), freq=norama
@<TRIPOS>ATOM
      1 C          -0.8870   -0.7998    0.2792 C.2     1  UNL1       -0.2104
      2 C          -2.3716   -0.7233    0.4060 C.2     1  UNL1        0.3594
      3 O          -2.9211   -1.1929    1.3966 O.2     1  UNL1       -0.4928
      4 C          -0.0184    0.1795    0.0461 C.2     1  UNL1        0.0214
      5 C           1.4462   -0.0188   -0.0108 C.ar    1  UNL1        0.2080
      6 C           2.3278    0.9127    0.5342 C.ar    1  UNL1       -0.2359
      7 C           3.6934    0.6827    0.5087 C.ar    1  UNL1       -0.1321
      8 C           4.1975   -0.4727   -0.0715 C.ar    1  UNL1       -0.1436
      9 C           3.3272   -1.3981   -0.6285 C.ar    1  UNL1       -0.1303
     10 C           1.9604   -1.1731   -0.6007 C.ar    1  UNL1       -0.2480
     11 H           1.9448    1.8169    0.9886 H       1  UNL1        0.1537
     12 H           4.3664    1.4102    0.9440 H       1  UNL1        0.1485
     13 H           5.2654   -0.6474   -0.0959 H       1  UNL1        0.1494
     14 H           3.7123   -2.2951   -1.0961 H       1  UNL1        0.1490
     15 H           1.2885   -1.8893   -1.0561 H       1  UNL1        0.1665
     16 CL         -0.5528    1.8273   -0.1854 Cl      1  UNL1       -0.0892
     17 H          -0.4823   -1.7788    0.5054 H       1  UNL1        0.1871
     18 N          -3.0480   -0.1744   -0.6109 N.am    1  UNL1       -0.3118
     19 C          -4.4881   -0.0390   -0.5906 C.3     1  UNL1       -0.2518
     20 H          -2.5353    0.1894   -1.3941 H       1  UNL1        0.2782
     21 H          -4.8071    0.4135   -1.5258 H       1  UNL1        0.1488
     22 H          -4.9660   -1.0137   -0.4858 H       1  UNL1        0.1375
     23 H          -4.8092    0.5935    0.2385 H       1  UNL1        0.1384
@<TRIPOS>BOND
     1    21    19    1
     2    20    18    1
     3    14     9    1
     4    15    10    1
     5     9    10   ar
     6     9     8   ar
     7    18    19    1
     8    18     2   am
     9    10     5   ar
    10    19    22    1
    11    19    23    1
    12    16     4    1
    13    13     8    1
    14     8     7   ar
    15     5     4    1
    16     5     6   ar
    17     4     1    2
    18     1     2    1
    19     1    17    1
    20     2     3    2
    21     7     6   ar
    22     7    12    1
    23     6    11    1
