@<TRIPOS>MOLECULE
GS-120-1.out
 31 32 0 0 0
SMALL
MULLIKEN_CHARGES
****
Gaussian 16 # wB97XD def2tzvp, opt=(maxcycles=50, maxstep=1), freq=noraman, scrf=(
@<TRIPOS>ATOM
      1 C          -0.0419   -0.8896    0.0540 C.2     1  UNL1        0.0518
      2 C           1.3951   -1.2594   -0.2150 C.2     1  UNL1        0.2585
      3 O           1.6691   -2.3925   -0.5426 O.2     1  UNL1       -0.3658
      4 C          -0.7570   -0.0093   -0.6424 C.2     1  UNL1       -0.0612
      5 C          -2.1823    0.2820   -0.3371 C.ar    1  UNL1        0.1512
      6 C          -2.5318    0.9488    0.8337 C.ar    1  UNL1       -0.2188
      7 C          -3.8582    1.2529    1.0983 C.ar    1  UNL1       -0.1370
      8 C          -4.8496    0.8885    0.1983 C.ar    1  UNL1       -0.1353
      9 C          -4.5078    0.2247   -0.9711 C.ar    1  UNL1       -0.1473
     10 C          -3.1800   -0.0697   -1.2416 C.ar    1  UNL1       -0.2366
     11 H          -1.7601    1.2307    1.5393 H       1  UNL1        0.1637
     12 H          -4.1174    1.7753    2.0104 H       1  UNL1        0.1449
     13 H          -5.8857    1.1228    0.4070 H       1  UNL1        0.1470
     14 H          -5.2762   -0.0638   -1.6770 H       1  UNL1        0.1456
     15 H          -2.9184   -0.5865   -2.1571 H       1  UNL1        0.1539
     16 C          -0.1818    0.7527   -1.8031 C.3     1  UNL1       -0.3261
     17 H          -0.1831    1.8219   -1.5789 H       1  UNL1        0.1509
     18 H           0.8306    0.4516   -2.0615 H       1  UNL1        0.1457
     19 H          -0.8156    0.6071   -2.6801 H       1  UNL1        0.1558
     20 CL         -0.7260   -1.8411    1.3453 Cl      1  UNL1       -0.0925
     21 C           2.4412   -0.2175   -0.0374 C.ar    1  UNL1        0.0156
     22 C           3.7180   -0.4575   -0.5447 C.ar    1  UNL1       -0.1867
     23 C           4.7188    0.4819   -0.3800 C.ar    1  UNL1       -0.1307
     24 C           4.4559    1.6628    0.3045 C.ar    1  UNL1       -0.1134
     25 C           3.1908    1.9038    0.8198 C.ar    1  UNL1       -0.1581
     26 C           2.1829    0.9694    0.6448 C.ar    1  UNL1       -0.1623
     27 H           3.9102   -1.3825   -1.0720 H       1  UNL1        0.1495
     28 H           5.7058    0.2972   -0.7835 H       1  UNL1        0.1509
     29 H           5.2409    2.3968    0.4356 H       1  UNL1        0.1532
     30 H           2.9878    2.8209    1.3570 H       1  UNL1        0.1482
     31 H           1.1961    1.1604    1.0452 H       1  UNL1        0.1855
@<TRIPOS>BOND
     1    19    16    1
     2    15    10    1
     3    18    16    1
     4    16    17    1
     5    16     4    1
     6    14     9    1
     7    10     9   ar
     8    10     5   ar
     9    27    22    1
    10     9     8   ar
    11    28    23    1
    12     4     5    1
    13     4     1    2
    14    22    23   ar
    15    22    21   ar
    16     3     2    2
    17    23    24   ar
    18     5     6   ar
    19     2    21    1
    20     2     1    1
    21    21    26   ar
    22     1    20    1
    23     8    13    1
    24     8     7   ar
    25    24    29    1
    26    24    25   ar
    27    26    25   ar
    28    26    31    1
    29    25    30    1
    30     6     7   ar
    31     6    11    1
    32     7    12    1
