@<TRIPOS>MOLECULE
GS-177-0.out
 21 21 0 0 0
SMALL
MULLIKEN_CHARGES
****
Gaussian 16 # wB97XD def2tzvp, opt=(calcfc, maxcycles=70, maxstep=10), freq=norama
@<TRIPOS>ATOM
      1 C          -1.5781   -0.5150    0.1398 C.2     1  UNL1       -0.0264
      2 C          -2.9985   -0.1430   -0.0089 C.2     1  UNL1        0.1468
      3 O          -3.9040   -0.9235    0.1812 O.2     1  UNL1       -0.3776
      4 C          -0.5982    0.3807   -0.0555 C.2     1  UNL1        0.0548
      5 C           0.8506    0.0907   -0.0224 C.ar    1  UNL1        0.1974
      6 C           1.7024    0.8073    0.8159 C.ar    1  UNL1       -0.2146
      7 C           3.0558    0.5166    0.8464 C.ar    1  UNL1       -0.1392
      8 C           3.5749   -0.4766    0.0267 C.ar    1  UNL1       -0.1389
      9 C           2.7342   -1.1821   -0.8211 C.ar    1  UNL1       -0.1172
     10 C           1.3766   -0.9034   -0.8437 C.ar    1  UNL1       -0.2483
     11 H           1.3024    1.5878    1.4505 H       1  UNL1        0.1560
     12 H           3.7079    1.0694    1.5100 H       1  UNL1        0.1493
     13 H           4.6344   -0.6970    0.0467 H       1  UNL1        0.1505
     14 H           3.1342   -1.9513   -1.4689 H       1  UNL1        0.1499
     15 H           0.7215   -1.4526   -1.5076 H       1  UNL1        0.1658
     16 CL         -0.9454    2.0638   -0.3893 Cl      1  UNL1       -0.0830
     17 C          -1.3166   -1.9428    0.5223 C.3     1  UNL1       -0.3914
     18 H          -1.4832   -2.6082   -0.3273 H       1  UNL1        0.1511
     19 H          -0.3016   -2.0907    0.8811 H       1  UNL1        0.1575
     20 H          -2.0171   -2.2390    1.3032 H       1  UNL1        0.1453
     21 H          -3.2115    0.8907   -0.3167 H       1  UNL1        0.1121
@<TRIPOS>BOND
     1    15    10    1
     2    14     9    1
     3    10     9   ar
     4    10     5   ar
     5     9     8   ar
     6    16     4    1
     7    18    17    1
     8    21     2    1
     9     4     5    1
    10     4     1    2
    11     5     6   ar
    12     2     1    1
    13     2     3    2
    14     8    13    1
    15     8     7   ar
    16     1    17    1
    17    17    19    1
    18    17    20    1
    19     6     7   ar
    20     6    11    1
    21     7    12    1
