@<TRIPOS>MOLECULE
GS-193-0.out
 18 18 0 0 0
SMALL
MULLIKEN_CHARGES
****
Gaussian 16 # wB97XD def2tzvp, opt=(calcfc, maxcycles=70, maxstep=10), freq=norama
@<TRIPOS>ATOM
      1 C          -1.5098   -0.2264   -0.0384 C.2     1  UNL1        0.0098
      2 C          -2.9222    0.1997    0.0622 C.2     1  UNL1        0.1266
      3 O          -3.8559   -0.5458   -0.0889 O.2     1  UNL1       -0.3460
      4 C          -0.4566    0.5961    0.0849 C.2     1  UNL1        0.0448
      5 C           0.9656    0.2031    0.0463 C.ar    1  UNL1        0.2140
      6 C           1.8184    0.7576   -0.9049 C.ar    1  UNL1       -0.2209
      7 C           3.1524    0.3879   -0.9375 C.ar    1  UNL1       -0.1306
      8 C           3.6470   -0.5176   -0.0092 C.ar    1  UNL1       -0.1410
      9 C           2.8029   -1.0579    0.9502 C.ar    1  UNL1       -0.1165
     10 C           1.4637   -0.7048    0.9768 C.ar    1  UNL1       -0.2450
     11 H           1.4356    1.4714   -1.6232 H       1  UNL1        0.1592
     12 H           3.8079    0.8118   -1.6869 H       1  UNL1        0.1514
     13 H           4.6919   -0.7991   -0.0313 H       1  UNL1        0.1521
     14 H           3.1868   -1.7570    1.6816 H       1  UNL1        0.1517
     15 H           0.8055   -1.1261    1.7251 H       1  UNL1        0.1693
     16 CL         -0.7093    2.3008    0.3054 Cl      1  UNL1       -0.0432
     17 CL         -1.2778   -1.9081   -0.3659 Cl      1  UNL1       -0.0622
     18 H          -3.0690    1.2636    0.2930 H       1  UNL1        0.1265
@<TRIPOS>BOND
     1    12     7    1
     2    11     6    1
     3     7     6   ar
     4     7     8   ar
     5     6     5   ar
     6    17     1    1
     7     3     2    2
     8     1     2    1
     9     1     4    2
    10    13     8    1
    11     8     9   ar
    12     5     4    1
    13     5    10   ar
    14     2    18    1
    15     4    16    1
    16     9    10   ar
    17     9    14    1
    18    10    15    1
