@<TRIPOS>MOLECULE
GS-117-0.out
 26 26 0 0 0
SMALL
MULLIKEN_CHARGES
****
Gaussian 16 # wB97XD def2tzvp, opt=(maxcycles=50, maxstep=10), freq=noraman, geom=
@<TRIPOS>ATOM
      1 C          -0.9021   -0.0777   -0.1086 C.2     1  UNL1       -0.0473
      2 C          -2.3623    0.2707   -0.2241 C.2     1  UNL1        0.3488
      3 O          -2.7410    1.2006   -0.9249 O.2     1  UNL1       -0.4819
      4 C           0.0945    0.8077   -0.0627 C.2     1  UNL1        0.0051
      5 C           1.5187    0.3807   -0.0034 C.ar    1  UNL1        0.1876
      6 C           2.2560    0.5553    1.1638 C.ar    1  UNL1       -0.2265
      7 C           3.5910    0.1830    1.2119 C.ar    1  UNL1       -0.1439
      8 C           4.2062   -0.3513    0.0889 C.ar    1  UNL1       -0.1450
      9 C           3.4793   -0.5149   -1.0819 C.ar    1  UNL1       -0.1265
     10 C           2.1417   -0.1531   -1.1275 C.ar    1  UNL1       -0.2321
     11 H           1.7807    0.9753    2.0421 H       1  UNL1        0.1545
     12 H           4.1517    0.3132    2.1289 H       1  UNL1        0.1455
     13 H           5.2496   -0.6374    0.1253 H       1  UNL1        0.1468
     14 H           3.9542   -0.9268   -1.9633 H       1  UNL1        0.1457
     15 H           1.5738   -0.2859   -2.0403 H       1  UNL1        0.1524
     16 C          -0.1095    2.2952   -0.0487 C.3     1  UNL1       -0.3393
     17 H           0.4833    2.7248    0.7615 H       1  UNL1        0.1424
     18 H           0.2703    2.7221   -0.9804 H       1  UNL1        0.1458
     19 H          -1.1489    2.5828    0.0659 H       1  UNL1        0.1403
     20 CL         -0.5720   -1.7970   -0.0062 Cl      1  UNL1       -0.1095
     21 N          -3.2082   -0.4876    0.4862 N.am    1  UNL1       -0.3027
     22 C          -4.6368   -0.2662    0.4549 C.3     1  UNL1       -0.2528
     23 H          -2.8436   -1.2443    1.0370 H       1  UNL1        0.2673
     24 H          -5.1181   -1.0236    1.0680 H       1  UNL1        0.1489
     25 H          -4.8880    0.7208    0.8460 H       1  UNL1        0.1381
     26 H          -5.0168   -0.3391   -0.5650 H       1  UNL1        0.1383
@<TRIPOS>BOND
     1    15    10    1
     2    14     9    1
     3    10     9   ar
     4    10     5   ar
     5     9     8   ar
     6    18    16    1
     7     3     2    2
     8    26    22    1
     9     2     1    1
    10     2    21   am
    11     1     4    2
    12     1    20    1
    13     4    16    1
    14     4     5    1
    15    16    19    1
    16    16    17    1
    17     5     6   ar
    18     8    13    1
    19     8     7   ar
    20    22    21    1
    21    22    25    1
    22    22    24    1
    23    21    23    1
    24     6     7   ar
    25     6    11    1
    26     7    12    1
