@<TRIPOS>MOLECULE
GS-121-0.out
 28 29 0 0 0
SMALL
MULLIKEN_CHARGES
****
Gaussian 16 # wB97XD def2tzvp, opt=(maxcycles=50, maxstep=10), freq=noraman, geom=
@<TRIPOS>ATOM
      1 C          -0.1931   -1.2490   -0.0022 C.2     1  UNL1       -0.0059
      2 C          -0.0681   -2.7239    0.0164 C.2     1  UNL1        0.1482
      3 O          -1.0086   -3.4735   -0.0956 O.2     1  UNL1       -0.3609
      4 C           0.8753   -0.4379    0.0392 C.2     1  UNL1        0.0217
      5 C           0.8134    1.0369    0.1109 C.ar    1  UNL1        0.1924
      6 C           0.1306    1.6447    1.1617 C.ar    1  UNL1       -0.2156
      7 C           0.0484    3.0257    1.2318 C.ar    1  UNL1       -0.1451
      8 C           0.6372    3.8094    0.2501 C.ar    1  UNL1       -0.1256
      9 C           1.3211    3.2074   -0.7971 C.ar    1  UNL1       -0.1481
     10 C           1.4195    1.8276   -0.8619 C.ar    1  UNL1       -0.2174
     11 H          -0.3349    1.0333    1.9235 H       1  UNL1        0.1641
     12 H          -0.4786    3.4896    2.0555 H       1  UNL1        0.1481
     13 H           0.5670    4.8882    0.3025 H       1  UNL1        0.1500
     14 H           1.7819    3.8141   -1.5658 H       1  UNL1        0.1484
     15 H           1.9574    1.3614   -1.6778 H       1  UNL1        0.1584
     16 BR          2.6617   -1.1090    0.0201 Br      1  UNL1       -0.0449
     17 C          -1.5689   -0.6897   -0.0999 C.ar    1  UNL1        0.1704
     18 C          -2.4944   -0.9129    0.9151 C.ar    1  UNL1       -0.2499
     19 C          -3.7710   -0.3808    0.8280 C.ar    1  UNL1       -0.1350
     20 C          -4.1393    0.3702   -0.2798 C.ar    1  UNL1       -0.1333
     21 C          -3.2255    0.5840   -1.3015 C.ar    1  UNL1       -0.1514
     22 C          -1.9468    0.0558   -1.2119 C.ar    1  UNL1       -0.2214
     23 H          -2.2096   -1.4947    1.7828 H       1  UNL1        0.1464
     24 H          -4.4797   -0.5519    1.6282 H       1  UNL1        0.1446
     25 H          -5.1368    0.7856   -0.3471 H       1  UNL1        0.1463
     26 H          -3.5071    1.1644   -2.1708 H       1  UNL1        0.1440
     27 H          -1.2323    0.2279   -2.0073 H       1  UNL1        0.1549
     28 H           0.9501   -3.1201    0.1426 H       1  UNL1        0.1164
@<TRIPOS>BOND
     1    26    21    1
     2    27    22    1
     3    15    10    1
     4    14     9    1
     5    21    22   ar
     6    21    20   ar
     7    22    17   ar
     8    10     9   ar
     9    10     5   ar
    10     9     8   ar
    11    25    20    1
    12    20    19   ar
    13    17     1    1
    14    17    18   ar
    15     3     2    2
    16     1     2    1
    17     1     4    2
    18     2    28    1
    19    16     4    1
    20     4     5    1
    21     5     6   ar
    22     8    13    1
    23     8     7   ar
    24    19    18   ar
    25    19    24    1
    26    18    23    1
    27     6     7   ar
    28     6    11    1
    29     7    12    1
