@<TRIPOS>MOLECULE
GS-167-0.out
 40 42 0 0 0
SMALL
MULLIKEN_CHARGES
****
Gaussian 16 # wb97xd def2tzvp opt=(calcfc, maxcycles=100, maxstep=10) freq=noraman
@<TRIPOS>ATOM
      1 C           0.3355   -0.0011   -0.3842 C.2     1  UNL1       -0.0366
      2 C          -1.1173   -0.0829   -0.7877 C.2     1  UNL1        0.3216
      3 O          -1.4496   -0.0442   -1.9579 O.2     1  UNL1       -0.4500
      4 C           1.0908   -1.0950   -0.3090 C.2     1  UNL1        0.1059
      5 C           2.5484   -1.1371   -0.0662 C.ar    1  UNL1        0.1124
      6 C           3.0814   -1.9156    0.9578 C.ar    1  UNL1       -0.2264
      7 C           4.4468   -1.9214    1.1906 C.ar    1  UNL1       -0.1465
      8 C           5.2932   -1.1615    0.3948 C.ar    1  UNL1       -0.1280
      9 C           4.7685   -0.3966   -0.6369 C.ar    1  UNL1       -0.1427
     10 C           3.4023   -0.3834   -0.8672 C.ar    1  UNL1       -0.2196
     11 H           2.4242   -2.5108    1.5792 H       1  UNL1        0.1515
     12 H           4.8511   -2.5210    1.9959 H       1  UNL1        0.1468
     13 H           6.3604   -1.1697    0.5759 H       1  UNL1        0.1486
     14 H           5.4242    0.1905   -1.2671 H       1  UNL1        0.1465
     15 H           2.9922    0.2151   -1.6704 H       1  UNL1        0.1639
     16 CL          0.3502   -2.6653   -0.5421 Cl      1  UNL1       -0.0897
     17 C           0.8336    1.3686   -0.0990 C.ar    1  UNL1        0.1506
     18 C           0.6037    2.4006   -1.0068 C.ar    1  UNL1       -0.2170
     19 C           1.0578    3.6827   -0.7395 C.ar    1  UNL1       -0.1528
     20 C           1.7355    3.9513    0.4410 C.ar    1  UNL1       -0.1251
     21 C           1.9524    2.9316    1.3572 C.ar    1  UNL1       -0.1516
     22 C           1.5026    1.6488    1.0910 C.ar    1  UNL1       -0.2154
     23 H           0.0779    2.1944   -1.9306 H       1  UNL1        0.1511
     24 H           0.8821    4.4737   -1.4573 H       1  UNL1        0.1453
     25 H           2.0888    4.9531    0.6491 H       1  UNL1        0.1475
     26 H           2.4708    3.1357    2.2854 H       1  UNL1        0.1447
     27 H           1.6694    0.8567    1.8097 H       1  UNL1        0.1613
     28 N          -1.9630   -0.1465    0.2683 N.am    1  UNL1       -0.2429
     29 C          -3.3689   -0.1967    0.2843 C.ar    1  UNL1        0.3023
     30 C          -3.9826   -0.3117    1.5317 C.ar    1  UNL1       -0.3021
     31 C          -5.3609   -0.3626    1.6304 C.ar    1  UNL1       -0.0992
     32 C          -6.1483   -0.3003    0.4883 C.ar    1  UNL1       -0.1827
     33 C          -5.5359   -0.1861   -0.7492 C.ar    1  UNL1       -0.1135
     34 C          -4.1535   -0.1333   -0.8646 C.ar    1  UNL1       -0.2835
     35 H          -1.5206   -0.1835    1.1730 H       1  UNL1        0.2763
     36 H          -3.3743   -0.3616    2.4270 H       1  UNL1        0.1470
     37 H          -5.8206   -0.4520    2.6064 H       1  UNL1        0.1474
     38 H          -7.2269   -0.3405    0.5646 H       1  UNL1        0.1446
     39 H          -6.1378   -0.1363   -1.6480 H       1  UNL1        0.1456
     40 H          -3.6866   -0.0446   -1.8317 H       1  UNL1        0.1643
@<TRIPOS>BOND
     1     3     2    2
     2    23    18    1
     3    40    34    1
     4    15    10    1
     5    39    33    1
     6    24    19    1
     7    14     9    1
     8    18    19   ar
     9    18    17   ar
    10    10     9   ar
    11    10     5   ar
    12    34    33   ar
    13    34    29   ar
    14     2     1    1
    15     2    28   am
    16    33    32   ar
    17    19    20   ar
    18     9     8   ar
    19    16     4    1
    20     1     4    2
    21     1    17    1
    22     4     5    1
    23    17    22   ar
    24     5     6   ar
    25    28    29    1
    26    28    35    1
    27    29    30   ar
    28     8    13    1
    29     8     7   ar
    30    20    25    1
    31    20    21   ar
    32    32    38    1
    33    32    31   ar
    34     6     7   ar
    35     6    11    1
    36    22    21   ar
    37    22    27    1
    38     7    12    1
    39    21    26    1
    40    30    31   ar
    41    30    36    1
    42    31    37    1
