@<TRIPOS>MOLECULE
GS-18-0.out
 34 35 0 0 0
SMALL
MULLIKEN_CHARGES
****
Gaussian 16 # wB97XD def2tzvp, opt=(calcfc, maxcycles=70, maxstep=10), freq=norama
@<TRIPOS>ATOM
      1 C           0.3005    1.7051   -0.0960 C.2     1  UNL1        0.0088
      2 C           1.7530    2.0844    0.0109 C.2     1  UNL1        0.1930
      3 O           2.2627    2.7936   -0.8318 O.2     1  UNL1       -0.3919
      4 C          -0.1040    0.4262   -0.0526 C.2     1  UNL1        0.1852
      5 C          -1.5410    0.0418   -0.0618 C.ar    1  UNL1        0.0872
      6 C          -2.0140   -0.8786   -0.9962 C.ar    1  UNL1       -0.2131
      7 C          -3.3476   -1.2543   -1.0062 C.ar    1  UNL1       -0.1568
      8 C          -4.2263   -0.7299   -0.0678 C.ar    1  UNL1       -0.1335
      9 C          -3.7627    0.1731    0.8776 C.ar    1  UNL1       -0.1238
     10 C          -2.4299    0.5570    0.8787 C.ar    1  UNL1       -0.2723
     11 H          -1.3298   -1.2992   -1.7234 H       1  UNL1        0.1539
     12 H          -3.7015   -1.9614   -1.7458 H       1  UNL1        0.1428
     13 H          -5.2669   -1.0286   -0.0706 H       1  UNL1        0.1458
     14 H          -4.4390    0.5785    1.6195 H       1  UNL1        0.1434
     15 H          -2.0699    1.2570    1.6224 H       1  UNL1        0.1557
     16 C           0.8565   -0.7079   -0.0297 C.ar    1  UNL1        0.0237
     17 C           0.7132   -1.7277    0.9123 C.ar    1  UNL1       -0.1917
     18 C           1.6210   -2.7709    0.9669 C.ar    1  UNL1       -0.1578
     19 C           2.6776   -2.8248    0.0657 C.ar    1  UNL1       -0.1241
     20 C           2.8139   -1.8324   -0.8919 C.ar    1  UNL1       -0.1475
     21 C           1.9073   -0.7826   -0.9409 C.ar    1  UNL1       -0.2173
     22 H          -0.1100   -1.6911    1.6157 H       1  UNL1        0.1550
     23 H           1.5054   -3.5459    1.7140 H       1  UNL1        0.1437
     24 H           3.3848   -3.6435    0.1059 H       1  UNL1        0.1465
     25 H           3.6239   -1.8757   -1.6089 H       1  UNL1        0.1441
     26 H           2.0082   -0.0201   -1.7030 H       1  UNL1        0.1594
     27 C          -0.6015    2.8901   -0.2994 C.3     1  UNL1       -0.3870
     28 H          -0.6702    3.4927    0.6101 H       1  UNL1        0.1464
     29 H          -0.1824    3.5282   -1.0788 H       1  UNL1        0.1430
     30 H          -1.6064    2.5926   -0.5886 H       1  UNL1        0.1486
     31 C           2.5035    1.6949    1.2559 C.3     1  UNL1       -0.3587
     32 H           2.2360    2.4251    2.0262 H       1  UNL1        0.1571
     33 H           2.2223    0.7119    1.6257 H       1  UNL1        0.1553
     34 H           3.5765    1.7495    1.0825 H       1  UNL1        0.1371
@<TRIPOS>BOND
     1    12     7    1
     2    11     6    1
     3    26    21    1
     4    25    20    1
     5    29    27    1
     6     7     6   ar
     7     7     8   ar
     8     6     5   ar
     9    21    20   ar
    10    21    16   ar
    11    20    19   ar
    12     3     2    2
    13    30    27    1
    14    27     1    1
    15    27    28    1
    16     1     4    2
    17     1     2    1
    18    13     8    1
    19     8     9   ar
    20     5     4    1
    21     5    10   ar
    22     4    16    1
    23    16    17   ar
    24     2    31    1
    25    19    24    1
    26    19    18   ar
    27     9    10   ar
    28     9    14    1
    29    10    15    1
    30    17    18   ar
    31    17    22    1
    32    18    23    1
    33    34    31    1
    34    31    33    1
    35    31    32    1
