@<TRIPOS>MOLECULE
GS-151-1.out
 30 31 0 0 0
SMALL
MULLIKEN_CHARGES
****
Gaussian 16 # wB97XD def2tzvp, opt=(calcfc, maxcycles=70, maxstep=1), freq=noraman
@<TRIPOS>ATOM
      1 C           0.3702    0.5970   -0.3133 C.2     1  UNL1       -0.0748
      2 C          -1.0862    0.5174   -0.7026 C.2     1  UNL1        0.3623
      3 O          -1.4294    0.7194   -1.8500 O.2     1  UNL1       -0.4351
      4 C           1.1931   -0.4332   -0.1835 C.2     1  UNL1       -0.0289
      5 C           2.6293   -0.3799    0.1575 C.ar    1  UNL1        0.1612
      6 C           3.0200   -0.1815    1.4777 C.ar    1  UNL1       -0.2090
      7 C           4.3671   -0.1293    1.8001 C.ar    1  UNL1       -0.1357
      8 C           5.3260   -0.2740    0.8078 C.ar    1  UNL1       -0.1287
      9 C           4.9368   -0.4741   -0.5095 C.ar    1  UNL1       -0.1420
     10 C           3.5915   -0.5317   -0.8359 C.ar    1  UNL1       -0.2022
     11 H           2.2680   -0.0659    2.2481 H       1  UNL1        0.1576
     12 H           4.6671    0.0256    2.8283 H       1  UNL1        0.1494
     13 H           6.3776   -0.2316    1.0609 H       1  UNL1        0.1508
     14 H           5.6826   -0.5856   -1.2858 H       1  UNL1        0.1494
     15 H           3.2850   -0.6897   -1.8625 H       1  UNL1        0.1556
     16 BR          0.5028   -2.1888   -0.4659 Br      1  UNL1       -0.0345
     17 BR          0.9825    2.3758   -0.1186 Br      1  UNL1       -0.0098
     18 N          -1.9008    0.2377    0.3383 N.am    1  UNL1       -0.2566
     19 C          -3.2991    0.0723    0.3505 C.ar    1  UNL1        0.3093
     20 C          -3.8800   -0.2907    1.5652 C.ar    1  UNL1       -0.2975
     21 C          -5.2480   -0.4692    1.6575 C.ar    1  UNL1       -0.0985
     22 C          -6.0550   -0.2897    0.5420 C.ar    1  UNL1       -0.1799
     23 C          -5.4741    0.0707   -0.6631 C.ar    1  UNL1       -0.1127
     24 C          -4.1025    0.2547   -0.7718 C.ar    1  UNL1       -0.2866
     25 H          -1.4414    0.0949    1.2241 H       1  UNL1        0.2818
     26 H          -3.2558   -0.4335    2.4394 H       1  UNL1        0.1483
     27 H          -5.6841   -0.7510    2.6073 H       1  UNL1        0.1485
     28 H          -7.1255   -0.4299    0.6136 H       1  UNL1        0.1456
     29 H          -6.0922    0.2142   -1.5403 H       1  UNL1        0.1468
     30 H          -3.6600    0.5353   -1.7135 H       1  UNL1        0.1660
@<TRIPOS>BOND
     1    15    10    1
     2     3     2    2
     3    30    24    1
     4    29    23    1
     5    14     9    1
     6    10     9   ar
     7    10     5   ar
     8    24    23   ar
     9    24    19   ar
    10     2     1    1
    11     2    18   am
    12    23    22   ar
    13     9     8   ar
    14    16     4    1
    15     1     4    2
    16     1    17    1
    17     4     5    1
    18     5     6   ar
    19    18    19    1
    20    18    25    1
    21    19    20   ar
    22    22    28    1
    23    22    21   ar
    24     8    13    1
    25     8     7   ar
    26     6     7   ar
    27     6    11    1
    28    20    21   ar
    29    20    26    1
    30    21    27    1
    31     7    12    1
