@<TRIPOS>MOLECULE
GS-160-0.out
 28 29 0 0 0
SMALL
MULLIKEN_CHARGES
****
Gaussian 16 # wB97XD def2tzvp, opt=(calcfc, maxcycles=70, maxstep=10), freq=norama
@<TRIPOS>ATOM
      1 C          -0.0291    0.8011   -0.5490 C.2     1  UNL1        0.0494
      2 C          -1.4315    0.6155   -1.0903 C.2     1  UNL1        0.3163
      3 O          -1.6086    0.6993   -2.2827 O.2     1  UNL1       -0.3553
      4 C           0.8555   -0.1604   -0.3308 C.2     1  UNL1       -0.0539
      5 C           2.2495    0.0087    0.1235 C.ar    1  UNL1        0.1687
      6 C           2.6342   -0.4248    1.3893 C.ar    1  UNL1       -0.2144
      7 C           3.9419   -0.2538    1.8126 C.ar    1  UNL1       -0.1439
      8 C           4.8740    0.3407    0.9728 C.ar    1  UNL1       -0.1299
      9 C           4.4948    0.7665   -0.2918 C.ar    1  UNL1       -0.1279
     10 C           3.1858    0.6025   -0.7174 C.ar    1  UNL1       -0.2356
     11 H           1.9075   -0.8923    2.0422 H       1  UNL1        0.1577
     12 H           4.2339   -0.5860    2.8004 H       1  UNL1        0.1489
     13 H           5.8963    0.4701    1.3042 H       1  UNL1        0.1506
     14 H           5.2193    1.2270   -0.9509 H       1  UNL1        0.1494
     15 H           2.8866    0.9338   -1.7036 H       1  UNL1        0.1595
     16 BR          0.2992   -1.9585   -0.6274 Br      1  UNL1       -0.0365
     17 CL          0.3421    2.4679   -0.2551 Cl      1  UNL1       -0.0498
     18 C          -2.5240    0.3817   -0.1173 C.ar    1  UNL1        0.0235
     19 C          -3.8293    0.2527   -0.5921 C.ar    1  UNL1       -0.2071
     20 C          -4.8681    0.0297    0.2917 C.ar    1  UNL1       -0.1235
     21 C          -4.6109   -0.0653    1.6547 C.ar    1  UNL1       -0.1150
     22 C          -3.3151    0.0628    2.1330 C.ar    1  UNL1       -0.1543
     23 C          -2.2719    0.2857    1.2496 C.ar    1  UNL1       -0.1670
     24 H          -4.0140    0.3290   -1.6553 H       1  UNL1        0.1518
     25 H          -5.8802   -0.0709   -0.0775 H       1  UNL1        0.1527
     26 H          -5.4256   -0.2405    2.3458 H       1  UNL1        0.1548
     27 H          -3.1167   -0.0120    3.1939 H       1  UNL1        0.1519
     28 H          -1.2614    0.3812    1.6261 H       1  UNL1        0.1789
@<TRIPOS>BOND
     1     3     2    2
     2    15    10    1
     3    24    19    1
     4     2     1    1
     5     2    18    1
     6    14     9    1
     7    10     9   ar
     8    10     5   ar
     9    16     4    1
    10    19    18   ar
    11    19    20   ar
    12     1     4    2
    13     1    17    1
    14     4     5    1
    15     9     8   ar
    16    18    23   ar
    17    25    20    1
    18     5     6   ar
    19    20    21   ar
    20     8    13    1
    21     8     7   ar
    22    23    28    1
    23    23    22   ar
    24     6     7   ar
    25     6    11    1
    26    21    22   ar
    27    21    26    1
    28     7    12    1
    29    22    27    1
