@<TRIPOS>MOLECULE
GS-12-0.out
 32 33 0 0 0
SMALL
MULLIKEN_CHARGES
****
Gaussian 16 # wB97XD def2tzvp, opt=(calcfc, maxcycles=70, maxstep=10), freq=norama
@<TRIPOS>ATOM
      1 C           0.2770   -1.6802   -0.1933 C.2     1  UNL1       -0.2485
      2 C           1.7217   -1.9923   -0.1971 C.2     1  UNL1        0.3809
      3 O           2.1969   -2.8728   -0.8783 O.2     1  UNL1       -0.4320
      4 C          -0.2956   -0.4747   -0.0771 C.2     1  UNL1        0.1374
      5 C          -1.7754   -0.3599   -0.0430 C.ar    1  UNL1        0.1150
      6 C          -2.5533   -1.3071    0.6228 C.ar    1  UNL1       -0.2448
      7 C          -3.9351   -1.2052    0.6334 C.ar    1  UNL1       -0.1381
      8 C          -4.5619   -0.1549   -0.0222 C.ar    1  UNL1       -0.1335
      9 C          -3.7976    0.7978   -0.6811 C.ar    1  UNL1       -0.1510
     10 C          -2.4156    0.7011   -0.6839 C.ar    1  UNL1       -0.2177
     11 H          -2.0714   -2.1175    1.1552 H       1  UNL1        0.1648
     12 H          -4.5234   -1.9437    1.1630 H       1  UNL1        0.1457
     13 H          -5.6414   -0.0748   -0.0128 H       1  UNL1        0.1476
     14 H          -4.2790    1.6212   -1.1932 H       1  UNL1        0.1451
     15 H          -1.8264    1.4505   -1.1972 H       1  UNL1        0.1644
     16 C           0.4739    0.7945   -0.0329 C.ar    1  UNL1        0.1932
     17 C           1.3850    1.1093   -1.0368 C.ar    1  UNL1       -0.2483
     18 C           2.0961    2.2985   -0.9944 C.ar    1  UNL1       -0.1391
     19 C           1.9053    3.1857    0.0548 C.ar    1  UNL1       -0.1329
     20 C           0.9908    2.8838    1.0548 C.ar    1  UNL1       -0.1477
     21 C           0.2707    1.7012    1.0046 C.ar    1  UNL1       -0.2378
     22 H           1.5317    0.4200   -1.8596 H       1  UNL1        0.1555
     23 H           2.7985    2.5327   -1.7841 H       1  UNL1        0.1444
     24 H           2.4622    4.1135    0.0900 H       1  UNL1        0.1466
     25 H           0.8349    3.5736    1.8744 H       1  UNL1        0.1442
     26 H          -0.4486    1.4730    1.7817 H       1  UNL1        0.1530
     27 H          -0.3421   -2.5526   -0.3606 H       1  UNL1        0.1731
     28 O           2.4384   -1.2531    0.6451 O.3     1  UNL1       -0.2675
     29 C           3.8506   -1.4616    0.6372 C.3     1  UNL1       -0.2015
     30 H           4.2539   -0.7671    1.3681 H       1  UNL1        0.1472
     31 H           4.0891   -2.4869    0.9176 H       1  UNL1        0.1413
     32 H           4.2598   -1.2500   -0.3504 H       1  UNL1        0.1412
@<TRIPOS>BOND
     1    22    17    1
     2    23    18    1
     3    15    10    1
     4    14     9    1
     5    17    18   ar
     6    17    16   ar
     7    18    19   ar
     8     3     2    2
     9    10     9   ar
    10    10     5   ar
    11     9     8   ar
    12    27     1    1
    13    32    29    1
    14     2     1    1
    15     2    28    1
    16     1     4    2
    17     4     5    1
    18     4    16    1
    19     5     6   ar
    20    16    21   ar
    21     8    13    1
    22     8     7   ar
    23    19    24    1
    24    19    20   ar
    25     6     7   ar
    26     6    11    1
    27     7    12    1
    28    29    28    1
    29    29    31    1
    30    29    30    1
    31    21    20   ar
    32    21    26    1
    33    20    25    1
