@<TRIPOS>MOLECULE
GS-27-1.out
 30 31 0 0 0
SMALL
MULLIKEN_CHARGES
****
Gaussian 16 # wB97XD def2tzvp, opt=(maxcycles=70, maxstep=1), freq=noraman, scrf=(
@<TRIPOS>ATOM
      1 C           0.1635   -1.2244    0.0411 C.2     1  UNL1       -0.0311
      2 C          -0.8610   -2.3287    0.1346 C.2     1  UNL1        0.2078
      3 O          -0.9911   -3.1565   -0.7509 O.2     1  UNL1       -0.4386
      4 C          -0.1086    0.0813    0.0142 C.2     1  UNL1        0.1150
      5 C           0.9325    1.1413   -0.0232 C.ar    1  UNL1        0.1230
      6 C           0.9774    2.0237   -1.0993 C.ar    1  UNL1       -0.2126
      7 C           1.9262    3.0328   -1.1383 C.ar    1  UNL1       -0.1513
      8 C           2.8241    3.1846   -0.0906 C.ar    1  UNL1       -0.1308
      9 C           2.7709    2.3208    0.9937 C.ar    1  UNL1       -0.1273
     10 C           1.8321    1.3010    1.0261 C.ar    1  UNL1       -0.2519
     11 H           0.2674    1.9152   -1.9102 H       1  UNL1        0.1550
     12 H           1.9605    3.7058   -1.9855 H       1  UNL1        0.1452
     13 H           3.5601    3.9780   -0.1171 H       1  UNL1        0.1476
     14 H           3.4618    2.4405    1.8185 H       1  UNL1        0.1455
     15 H           1.7910    0.6278    1.8732 H       1  UNL1        0.1598
     16 C          -1.5173    0.5636   -0.0065 C.ar    1  UNL1        0.0868
     17 C          -2.4262    0.0911   -0.9493 C.ar    1  UNL1       -0.1977
     18 C          -3.7321    0.5577   -0.9597 C.ar    1  UNL1       -0.1472
     19 C          -4.1423    1.5005   -0.0295 C.ar    1  UNL1       -0.1280
     20 C          -3.2377    1.9852    0.9063 C.ar    1  UNL1       -0.1475
     21 C          -1.9308    1.5280    0.9113 C.ar    1  UNL1       -0.2026
     22 H          -2.1063   -0.6373   -1.6837 H       1  UNL1        0.1566
     23 H          -4.4281    0.1862   -1.7009 H       1  UNL1        0.1459
     24 H          -5.1620    1.8637   -0.0374 H       1  UNL1        0.1479
     25 H          -3.5508    2.7248    1.6320 H       1  UNL1        0.1456
     26 H          -1.2249    1.9144    1.6363 H       1  UNL1        0.1599
     27 BR          1.9230   -1.9148   -0.1189 Br      1  UNL1       -0.0446
     28 N          -1.5717   -2.3375    1.2719 N.am    1  UNL1       -0.4144
     29 H          -2.3082   -3.0130    1.3863 H       1  UNL1        0.2851
     30 H          -1.4593   -1.6218    1.9670 H       1  UNL1        0.2990
@<TRIPOS>BOND
     1    12     7    1
     2    11     6    1
     3    23    18    1
     4    22    17    1
     5     7     6   ar
     6     7     8   ar
     7     6     5   ar
     8    18    17   ar
     9    18    19   ar
    10    17    16   ar
    11     3     2    2
    12    27     1    1
    13    13     8    1
    14     8     9   ar
    15    24    19    1
    16    19    20   ar
    17     5     4    1
    18     5    10   ar
    19    16     4    1
    20    16    21   ar
    21     4     1    2
    22     1     2    1
    23     2    28   am
    24    20    21   ar
    25    20    25    1
    26    21    26    1
    27     9    10   ar
    28     9    14    1
    29    10    15    1
    30    28    29    1
    31    28    30    1
