@<TRIPOS>MOLECULE
GS-226-0.out
 21 21 0 0 0
SMALL
MULLIKEN_CHARGES
****
Gaussian 16 # wB97XD def2tzvp, opt=(calcfc, maxcycles=50, maxstep=10), freq=norama
@<TRIPOS>ATOM
      1 C          -0.9568   -0.0646   -0.0060 C.2     1  UNL1        0.0633
      2 C          -0.8562    1.4267    0.1953 C.2     1  UNL1        0.1888
      3 O          -1.3942    2.1866   -0.5734 O.2     1  UNL1       -0.3529
      4 C           0.0472   -0.9279   -0.1247 C.2     1  UNL1       -0.2038
      5 H          -0.1918   -1.9818   -0.2161 H       1  UNL1        0.1765
      6 C           1.4780   -0.5880   -0.1511 C.ar    1  UNL1        0.1716
      7 C           2.3855   -1.4472    0.4709 C.ar    1  UNL1       -0.2198
      8 C           3.7376   -1.1508    0.4875 C.ar    1  UNL1       -0.1310
      9 C           4.2065   -0.0003   -0.1332 C.ar    1  UNL1       -0.1484
     10 C           3.3166    0.8456   -0.7783 C.ar    1  UNL1       -0.1148
     11 C           1.9622    0.5518   -0.7927 C.ar    1  UNL1       -0.2574
     12 H           2.0232   -2.3468    0.9537 H       1  UNL1        0.1463
     13 H           4.4286   -1.8208    0.9827 H       1  UNL1        0.1485
     14 H           5.2644    0.2286   -0.1246 H       1  UNL1        0.1497
     15 H           3.6776    1.7329   -1.2821 H       1  UNL1        0.1498
     16 H           1.2818    1.2024   -1.3278 H       1  UNL1        0.1710
     17 BR         -2.7529   -0.6774   -0.0940 Br      1  UNL1       -0.0626
     18 C          -0.1498    1.8899    1.4358 C.3     1  UNL1       -0.3454
     19 H          -0.8345    1.7282    2.2739 H       1  UNL1        0.1635
     20 H           0.7495    1.3107    1.6356 H       1  UNL1        0.1644
     21 H           0.0812    2.9501    1.3626 H       1  UNL1        0.1428
@<TRIPOS>BOND
     1    16    11    1
     2    15    10    1
     3    11    10   ar
     4    11     6   ar
     5    10     9   ar
     6     3     2    2
     7     5     4    1
     8     6     4    1
     9     6     7   ar
    10     9    14    1
    11     9     8   ar
    12     4     1    2
    13    17     1    1
    14     1     2    1
    15     2    18    1
    16     7     8   ar
    17     7    12    1
    18     8    13    1
    19    21    18    1
    20    18    20    1
    21    18    19    1
