@<TRIPOS>MOLECULE
GS-222-0.out
 29 29 0 0 0
SMALL
MULLIKEN_CHARGES
****
Gaussian 16 # wB97XD def2tzvp, opt=(calcfc, maxcycles=50, maxstep=10), freq=norama
@<TRIPOS>ATOM
      1 C           1.3632   -1.2653   -0.1405 C.2     1  UNL1        0.0336
      2 C           1.7569    0.1647   -0.3952 C.2     1  UNL1        0.2165
      3 O           2.2915    0.4426   -1.4681 O.2     1  UNL1       -0.4910
      4 C           0.0954   -1.6736   -0.0985 C.2     1  UNL1       -0.2822
      5 H          -0.0804   -2.7330    0.0675 H       1  UNL1        0.1478
      6 C          -1.1178   -0.8430   -0.1860 C.ar    1  UNL1        0.2225
      7 C          -1.2149    0.2789   -1.0109 C.ar    1  UNL1       -0.2066
      8 C          -2.3662    1.0508   -1.0231 C.ar    1  UNL1       -0.1521
      9 C          -3.4467    0.7115   -0.2212 C.ar    1  UNL1       -0.1471
     10 C          -3.3730   -0.4163    0.5844 C.ar    1  UNL1       -0.1391
     11 C          -2.2225   -1.1882    0.5950 C.ar    1  UNL1       -0.2284
     12 H          -0.3927    0.5428   -1.6634 H       1  UNL1        0.1554
     13 H          -2.4221    1.9171   -1.6704 H       1  UNL1        0.1436
     14 H          -4.3450    1.3156   -0.2327 H       1  UNL1        0.1449
     15 H          -4.2143   -0.6964    1.2058 H       1  UNL1        0.1433
     16 H          -2.1703   -2.0671    1.2271 H       1  UNL1        0.1392
     17 C           2.5247   -2.2061   -0.0201 C.3     1  UNL1       -0.3511
     18 H           3.1545   -2.1494   -0.9101 H       1  UNL1        0.1404
     19 H           3.1507   -1.9373    0.8353 H       1  UNL1        0.1393
     20 H           2.1856   -3.2334    0.1067 H       1  UNL1        0.1325
     21 N           1.5335    1.0767    0.5703 N.am    1  UNL1       -0.0759
     22 C           1.7877    2.4795    0.3123 C.3     1  UNL1       -0.2746
     23 C           0.9184    0.7882    1.8503 C.3     1  UNL1       -0.3060
     24 H           2.2297    2.5922   -0.6721 H       1  UNL1        0.1498
     25 H           0.8497    3.0397    0.3551 H       1  UNL1        0.1364
     26 H           2.4678    2.8826    1.0650 H       1  UNL1        0.1439
     27 H           0.9632   -0.2735    2.0705 H       1  UNL1        0.1658
     28 H           1.4539    1.3302    2.6309 H       1  UNL1        0.1501
     29 H          -0.1279    1.1069    1.8583 H       1  UNL1        0.1494
@<TRIPOS>BOND
     1    13     8    1
     2    12     7    1
     3     3     2    2
     4     8     7   ar
     5     8     9   ar
     6     7     6   ar
     7    18    17    1
     8    24    22    1
     9     2     1    1
    10     2    21   am
    11    14     9    1
    12     9    10   ar
    13     6     4    1
    14     6    11   ar
    15     1     4    2
    16     1    17    1
    17     4     5    1
    18    17    20    1
    19    17    19    1
    20    22    25    1
    21    22    21    1
    22    22    26    1
    23    21    23    1
    24    10    11   ar
    25    10    15    1
    26    11    16    1
    27    23    29    1
    28    23    27    1
    29    23    28    1
