@<TRIPOS>MOLECULE
GS-265-0.out
 8 7 0 0 0
SMALL
MULLIKEN_CHARGES
****
Gaussian 16 # wB97XD def2tzvp, opt=(calcfc, maxcycles=50, maxstep=10), freq=norama
@<TRIPOS>ATOM
      1 C           0.5718    0.3722    0.0000 C.2     1  UNL1        0.0058
      2 C           1.5501   -0.7531    0.0000 C.2     1  UNL1        0.1544
      3 O           2.7403   -0.5821   -0.0000 O.2     1  UNL1       -0.3426
      4 C           0.9418    1.6429    0.0000 C.2     1  UNL1       -0.2469
      5 H           0.2337    2.4593    0.0000 H       1  UNL1        0.1876
      6 H           2.0000    1.8746    0.0000 H       1  UNL1        0.1806
      7 BR         -1.2471   -0.1567   -0.0000 Br      1  UNL1       -0.0629
      8 H           1.1106   -1.7646    0.0000 H       1  UNL1        0.1240
@<TRIPOS>BOND
     1     3     2    2
     2     1     7    1
     3     1     4    2
     4     1     2    1
     5     5     4    1
     6     4     6    1
     7     2     8    1
