@<TRIPOS>MOLECULE
GS-204-0.out
 32 33 0 0 0
SMALL
MULLIKEN_CHARGES
****
Gaussian 16 # wB97XD def2tzvp, opt=(calcfc, maxcycles=50, maxstep=10), freq=norama
@<TRIPOS>ATOM
      1 C          -0.5573   -0.0340   -0.1244 C.2     1  UNL1        0.1192
      2 C          -0.1586    1.4079   -0.0317 C.2     1  UNL1        0.3140
      3 O          -0.3566    2.2298   -0.8931 O.2     1  UNL1       -0.4022
      4 C           0.3521   -1.0078   -0.2181 C.2     1  UNL1       -0.2301
      5 H          -0.0228   -2.0252   -0.2759 H       1  UNL1        0.1742
      6 C           1.8178   -0.8910   -0.2385 C.ar    1  UNL1        0.2520
      7 C           2.5704   -1.9162    0.3381 C.ar    1  UNL1       -0.2504
      8 C           3.9538   -1.8536    0.3676 C.ar    1  UNL1       -0.1402
      9 C           4.6132   -0.7713   -0.1981 C.ar    1  UNL1       -0.1433
     10 C           3.8784    0.2402   -0.8002 C.ar    1  UNL1       -0.1446
     11 C           2.4942    0.1802   -0.8243 C.ar    1  UNL1       -0.2560
     12 H           2.0608   -2.7661    0.7767 H       1  UNL1        0.1425
     13 H           4.5184   -2.6537    0.8292 H       1  UNL1        0.1454
     14 H           5.6944   -0.7226   -0.1814 H       1  UNL1        0.1471
     15 H           4.3851    1.0773   -1.2634 H       1  UNL1        0.1458
     16 H           1.9427    0.9626   -1.3297 H       1  UNL1        0.1683
     17 C          -2.0147   -0.3169   -0.0894 C.ar    1  UNL1        0.1470
     18 C          -2.4924   -1.4138    0.6298 C.ar    1  UNL1       -0.2568
     19 C          -3.8461   -1.7067    0.6590 C.ar    1  UNL1       -0.1453
     20 C          -4.7495   -0.9027   -0.0213 C.ar    1  UNL1       -0.1423
     21 C          -4.2872    0.1986   -0.7266 C.ar    1  UNL1       -0.1400
     22 C          -2.9328    0.4932   -0.7587 C.ar    1  UNL1       -0.2406
     23 H          -1.7999   -2.0313    1.1878 H       1  UNL1        0.1651
     24 H          -4.1967   -2.5600    1.2258 H       1  UNL1        0.1450
     25 H          -5.8078   -1.1290    0.0045 H       1  UNL1        0.1462
     26 H          -4.9838    0.8334   -1.2594 H       1  UNL1        0.1443
     27 H          -2.5830    1.3496   -1.3189 H       1  UNL1        0.1552
     28 O           0.4221    1.6805    1.1298 O.3     1  UNL1       -0.2562
     29 C           0.8950    3.0197    1.3072 C.3     1  UNL1       -0.2035
     30 H           0.0715    3.7280    1.2302 H       1  UNL1        0.1450
     31 H           1.3289    3.0477    2.3018 H       1  UNL1        0.1518
     32 H           1.6502    3.2521    0.5567 H       1  UNL1        0.1433
@<TRIPOS>BOND
     1    16    11    1
     2    27    22    1
     3    15    10    1
     4    26    21    1
     5     3     2    2
     6    11    10   ar
     7    11     6   ar
     8    10     9   ar
     9    22    21   ar
    10    22    17   ar
    11    21    20   ar
    12     5     4    1
    13     6     4    1
    14     6     7   ar
    15     4     1    2
    16     9    14    1
    17     9     8   ar
    18     1    17    1
    19     1     2    1
    20    17    18   ar
    21     2    28    1
    22    20    25    1
    23    20    19   ar
    24     7     8   ar
    25     7    12    1
    26     8    13    1
    27    32    29    1
    28    18    19   ar
    29    18    23    1
    30    19    24    1
    31    28    29    1
    32    30    29    1
    33    29    31    1
