@<TRIPOS>MOLECULE
GS-201-0.out
 28 29 0 0 0
SMALL
MULLIKEN_CHARGES
****
Gaussian 16 # wB97XD def2tzvp, opt=(calcfc, maxcycles=50, maxstep=10), freq=norama
@<TRIPOS>ATOM
      1 C          -0.4437    0.3404    0.0653 C.2     1  UNL1        0.0546
      2 C          -0.0814    1.7709    0.1417 C.2     1  UNL1        0.1046
      3 O          -0.8428    2.6854   -0.0801 O.2     1  UNL1       -0.3727
      4 C           0.5096   -0.6095    0.0955 C.2     1  UNL1       -0.1694
      5 H           0.1773   -1.6407    0.1791 H       1  UNL1        0.1830
      6 C           1.9657   -0.4385    0.0338 C.ar    1  UNL1        0.2309
      7 C           2.7715   -1.2460    0.8410 C.ar    1  UNL1       -0.2460
      8 C           4.1488   -1.1148    0.8200 C.ar    1  UNL1       -0.1328
      9 C           4.7476   -0.1928   -0.0292 C.ar    1  UNL1       -0.1393
     10 C           3.9612    0.5893   -0.8616 C.ar    1  UNL1       -0.1170
     11 C           2.5807    0.4657   -0.8339 C.ar    1  UNL1       -0.2988
     12 H           2.3079   -1.9718    1.4983 H       1  UNL1        0.1463
     13 H           4.7583   -1.7375    1.4622 H       1  UNL1        0.1478
     14 H           5.8255   -0.0962   -0.0523 H       1  UNL1        0.1499
     15 H           4.4226    1.2920   -1.5433 H       1  UNL1        0.1490
     16 H           1.9775    1.0525   -1.5150 H       1  UNL1        0.1830
     17 C          -1.8778   -0.0314    0.0076 C.ar    1  UNL1        0.1706
     18 C          -2.3127   -1.0049   -0.8901 C.ar    1  UNL1       -0.2564
     19 C          -3.6446   -1.3903   -0.9292 C.ar    1  UNL1       -0.1308
     20 C          -4.5633   -0.8035   -0.0724 C.ar    1  UNL1       -0.1511
     21 C          -4.1423    0.1722    0.8216 C.ar    1  UNL1       -0.1304
     22 C          -2.8127    0.5588    0.8585 C.ar    1  UNL1       -0.2534
     23 H          -1.6023   -1.4548   -1.5730 H       1  UNL1        0.1606
     24 H          -3.9643   -2.1461   -1.6354 H       1  UNL1        0.1448
     25 H          -5.6037   -1.1014   -0.1025 H       1  UNL1        0.1459
     26 H          -4.8534    0.6333    1.4954 H       1  UNL1        0.1443
     27 H          -2.4959    1.3173    1.5623 H       1  UNL1        0.1487
     28 H           0.9546    1.9782    0.4540 H       1  UNL1        0.1342
@<TRIPOS>BOND
     1    24    19    1
     2    23    18    1
     3    15    10    1
     4    16    11    1
     5    19    18   ar
     6    19    20   ar
     7    18    17   ar
     8    10    11   ar
     9    10     9   ar
    10    11     6   ar
    11    25    20    1
    12     3     2    2
    13    20    21   ar
    14    14     9    1
    15     9     8   ar
    16    17     1    1
    17    17    22   ar
    18     6     4    1
    19     6     7   ar
    20     1     4    2
    21     1     2    1
    22     4     5    1
    23     2    28    1
    24     8     7   ar
    25     8    13    1
    26    21    22   ar
    27    21    26    1
    28     7    12    1
    29    22    27    1
