@<TRIPOS>MOLECULE
GS-260-0.out
 15 14 0 0 0
SMALL
MULLIKEN_CHARGES
****
Gaussian 16 # wB97XD def2tzvp, opt=(calcfc, maxcycles=50, maxstep=10), freq=norama
@<TRIPOS>ATOM
      1 C          -1.1400    0.2577    0.0000 C.2     1  UNL1       -0.0793
      2 C           0.2448   -0.3005   -0.0000 C.2     1  UNL1        0.4390
      3 O           0.4795   -1.4866   -0.0000 O.2     1  UNL1       -0.4291
      4 C          -1.3489    1.5699   -0.0000 C.2     1  UNL1       -0.2608
      5 H          -2.3555    1.9698   -0.0000 H       1  UNL1        0.1540
      6 H          -0.5306    2.2763   -0.0000 H       1  UNL1        0.1617
      7 C          -2.2404   -0.7591    0.0000 C.3     1  UNL1       -0.3346
      8 H          -2.1730   -1.4045    0.8775 H       1  UNL1        0.1355
      9 H          -3.2131   -0.2697   -0.0000 H       1  UNL1        0.1330
     10 H          -2.1730   -1.4045   -0.8775 H       1  UNL1        0.1355
     11 O           1.1987    0.6278    0.0000 O.3     1  UNL1       -0.2831
     12 C           2.5457    0.1556   -0.0000 C.3     1  UNL1       -0.1949
     13 H           3.1696    1.0445    0.0000 H       1  UNL1        0.1468
     14 H           2.7413   -0.4419    0.8898 H       1  UNL1        0.1382
     15 H           2.7413   -0.4419   -0.8898 H       1  UNL1        0.1382
@<TRIPOS>BOND
     1    15    12    1
     2    10     7    1
     3     5     4    1
     4     6     4    1
     5     3     2    2
     6     4     1    2
     7     9     7    1
     8    12    13    1
     9    12    11    1
    10    12    14    1
    11     2     1    1
    12     2    11    1
    13     1     7    1
    14     7     8    1
