@<TRIPOS>MOLECULE
GS-205-0.out
 33 34 0 0 0
SMALL
MULLIKEN_CHARGES
****
Gaussian 16 # wB97XD def2tzvp, opt=(calcfc, maxcycles=50, maxstep=10), freq=norama
@<TRIPOS>ATOM
      1 C          -0.5509   -0.0436   -0.1397 C.2     1  UNL1        0.0542
      2 C          -0.1674    1.4119   -0.0836 C.2     1  UNL1        0.2559
      3 O          -0.3076    2.1628   -1.0433 O.2     1  UNL1       -0.4750
      4 C           0.3665   -1.0131   -0.2107 C.2     1  UNL1       -0.2014
      5 H           0.0018   -2.0355   -0.2436 H       1  UNL1        0.1680
      6 C           1.8331   -0.8924   -0.2253 C.ar    1  UNL1        0.2070
      7 C           2.5827   -1.9250    0.3432 C.ar    1  UNL1       -0.2426
      8 C           3.9663   -1.8673    0.3784 C.ar    1  UNL1       -0.1446
      9 C           4.6307   -0.7807   -0.1725 C.ar    1  UNL1       -0.1426
     10 C           3.8998    0.2396   -0.7647 C.ar    1  UNL1       -0.1505
     11 C           2.5154    0.1850   -0.7947 C.ar    1  UNL1       -0.2212
     12 H           2.0696   -2.7787    0.7703 H       1  UNL1        0.1412
     13 H           4.5266   -2.6745    0.8330 H       1  UNL1        0.1445
     14 H           5.7120   -0.7349   -0.1515 H       1  UNL1        0.1463
     15 H           4.4104    1.0812   -1.2155 H       1  UNL1        0.1446
     16 H           1.9670    0.9768   -1.2876 H       1  UNL1        0.1580
     17 C          -2.0044   -0.3405   -0.0938 C.ar    1  UNL1        0.1679
     18 C          -2.9315    0.4814   -0.7369 C.ar    1  UNL1       -0.2455
     19 C          -4.2854    0.1858   -0.6963 C.ar    1  UNL1       -0.1393
     20 C          -4.7401   -0.9290   -0.0073 C.ar    1  UNL1       -0.1438
     21 C          -3.8288   -1.7447    0.6483 C.ar    1  UNL1       -0.1460
     22 C          -2.4756   -1.4507    0.6099 C.ar    1  UNL1       -0.2592
     23 H          -2.5848    1.3484   -1.2830 H       1  UNL1        0.1524
     24 H          -4.9882    0.8308   -1.2088 H       1  UNL1        0.1433
     25 H          -5.7979   -1.1566    0.0256 H       1  UNL1        0.1454
     26 H          -4.1730   -2.6083    1.2034 H       1  UNL1        0.1441
     27 H          -1.7785   -2.0784    1.1506 H       1  UNL1        0.1622
     28 N           0.3170    1.8203    1.0964 N.am    1  UNL1       -0.2740
     29 C           0.8000    3.1673    1.3059 C.3     1  UNL1       -0.2574
     30 H           0.4403    1.1367    1.8224 H       1  UNL1        0.2807
     31 H           0.0222    3.8938    1.0710 H       1  UNL1        0.1392
     32 H           1.0846    3.2770    2.3491 H       1  UNL1        0.1499
     33 H           1.6679    3.3732    0.6757 H       1  UNL1        0.1381
@<TRIPOS>BOND
     1    16    11    1
     2    23    18    1
     3    15    10    1
     4    24    19    1
     5     3     2    2
     6    11    10   ar
     7    11     6   ar
     8    10     9   ar
     9    18    19   ar
    10    18    17   ar
    11    19    20   ar
    12     5     4    1
    13     6     4    1
    14     6     7   ar
    15     4     1    2
    16     9    14    1
    17     9     8   ar
    18     1    17    1
    19     1     2    1
    20    17    22   ar
    21     2    28   am
    22    20    25    1
    23    20    21   ar
    24     7     8   ar
    25     7    12    1
    26     8    13    1
    27    22    21   ar
    28    22    27    1
    29    21    26    1
    30    33    29    1
    31    31    29    1
    32    28    29    1
    33    28    30    1
    34    29    32    1
