@<TRIPOS>MOLECULE
GS-235-0.out
 20 20 0 0 0
SMALL
MULLIKEN_CHARGES
****
Gaussian 16 # wB97XD def2tzvp, opt=(calcfc, maxcycles=50, maxstep=10), freq=norama
@<TRIPOS>ATOM
      1 C           1.4757   -0.3783   -0.0447 C.2     1  UNL1        0.1091
      2 C           1.5812    1.1010    0.2340 C.2     1  UNL1        0.2304
      3 O           2.1588    1.8497   -0.5350 O.2     1  UNL1       -0.4373
      4 C           0.3642   -1.0880   -0.2042 C.2     1  UNL1       -0.2294
      5 H           0.4721   -2.1547   -0.3690 H       1  UNL1        0.1717
      6 C          -1.0162   -0.5769   -0.1744 C.ar    1  UNL1        0.1562
      7 C          -1.3722    0.6568   -0.7193 C.ar    1  UNL1       -0.1968
      8 C          -2.6854    1.0951   -0.6680 C.ar    1  UNL1       -0.1406
      9 C          -3.6633    0.3062   -0.0787 C.ar    1  UNL1       -0.1431
     10 C          -3.3233   -0.9319    0.4484 C.ar    1  UNL1       -0.1357
     11 C          -2.0116   -1.3734    0.3928 C.ar    1  UNL1       -0.2167
     12 H          -0.6242    1.2702   -1.2057 H       1  UNL1        0.1625
     13 H          -2.9471    2.0531   -1.0987 H       1  UNL1        0.1474
     14 H          -4.6891    0.6499   -0.0413 H       1  UNL1        0.1486
     15 H          -4.0824   -1.5579    0.8998 H       1  UNL1        0.1473
     16 H          -1.7505   -2.3428    0.8001 H       1  UNL1        0.1453
     17 CL          3.0334   -1.1390   -0.1836 Cl      1  UNL1       -0.0938
     18 N           1.0211    1.4946    1.3860 N.am    1  UNL1       -0.4132
     19 H           1.0060    2.4734    1.6179 H       1  UNL1        0.2873
     20 H           0.5358    0.8482    1.9818 H       1  UNL1        0.3008
@<TRIPOS>BOND
     1    12     7    1
     2    13     8    1
     3     7     8   ar
     4     7     6   ar
     5     8     9   ar
     6     3     2    2
     7     5     4    1
     8     4     6    1
     9     4     1    2
    10    17     1    1
    11     6    11   ar
    12     9    14    1
    13     9    10   ar
    14     1     2    1
    15     2    18   am
    16    11    10   ar
    17    11    16    1
    18    10    15    1
    19    18    19    1
    20    18    20    1
