@<TRIPOS>MOLECULE
GS-296-0.out
 21 21 0 0 0
SMALL
MULLIKEN_CHARGES
****
Gaussian 16 # wB97XD def2tzvp, opt=(calcfc, maxcycles=50, maxstep=10), freq=norama
@<TRIPOS>ATOM
      1 C           1.7358   -0.7098   -0.5766 C.2     1  UNL1       -0.3210
      2 C           0.8483    0.4105   -0.1940 C.2     1  UNL1        0.3550
      3 O           1.2708    1.5353    0.0112 O.2     1  UNL1       -0.4246
      4 C           3.0257   -0.8190   -0.2505 C.2     1  UNL1       -0.0598
      5 H           3.5428   -1.7016   -0.6169 H       1  UNL1        0.1519
      6 C           3.8554    0.1001    0.5777 C.3     1  UNL1       -0.3369
      7 H           4.4684   -0.4792    1.2706 H       1  UNL1        0.1353
      8 H           4.5466    0.6497   -0.0683 H       1  UNL1        0.1434
      9 H           3.2599    0.8258    1.1249 H       1  UNL1        0.1357
     10 H           1.2847   -1.5055   -1.1567 H       1  UNL1        0.1721
     11 C          -0.6184    0.1302   -0.0849 C.ar    1  UNL1        0.1261
     12 C          -1.5112    1.1987   -0.1507 C.ar    1  UNL1       -0.2015
     13 C          -2.8728    0.9830   -0.0326 C.ar    1  UNL1       -0.1250
     14 C          -3.3565   -0.3039    0.1685 C.ar    1  UNL1       -0.1339
     15 C          -2.4750   -1.3720    0.2463 C.ar    1  UNL1       -0.1378
     16 C          -1.1117   -1.1577    0.1124 C.ar    1  UNL1       -0.2343
     17 H          -1.1231    2.1975   -0.3007 H       1  UNL1        0.1475
     18 H          -3.5598    1.8171   -0.0957 H       1  UNL1        0.1483
     19 H          -4.4215   -0.4730    0.2653 H       1  UNL1        0.1505
     20 H          -2.8489   -2.3742    0.4109 H       1  UNL1        0.1489
     21 H          -0.4335   -1.9981    0.1835 H       1  UNL1        0.1602
@<TRIPOS>BOND
     1    10     1    1
     2     5     4    1
     3     1     4    2
     4     1     2    1
     5    17    12    1
     6     4     6    1
     7     2    11    1
     8     2     3    2
     9    12    11   ar
    10    12    13   ar
    11    18    13    1
    12    11    16   ar
    13     8     6    1
    14    13    14   ar
    15    16    21    1
    16    16    15   ar
    17    14    15   ar
    18    14    19    1
    19    15    20    1
    20     6     9    1
    21     6     7    1
