@<TRIPOS>MOLECULE
GS-251-0.out
 10 9 0 0 0
SMALL
MULLIKEN_CHARGES
****
Gaussian 16 # wB97XD def2tzvp, opt=(calcfc, maxcycles=50, maxstep=10), freq=norama
@<TRIPOS>ATOM
      1 C           0.8006   -0.6404    0.0000 C.2     1  UNL1       -0.1995
      2 C          -0.4818    0.1237    0.0000 C.2     1  UNL1        0.3524
      3 O          -0.5264    1.3468    0.0000 O.2     1  UNL1       -0.4890
      4 C           1.9706   -0.0212   -0.0000 C.2     1  UNL1       -0.2663
      5 H           2.9012   -0.5734   -0.0000 H       1  UNL1        0.1648
      6 H           2.0206    1.0612   -0.0000 H       1  UNL1        0.1582
      7 H           0.7438   -1.7233    0.0000 H       1  UNL1        0.1571
      8 N          -1.5923   -0.6390    0.0000 N.am    1  UNL1       -0.4479
      9 H          -2.4948   -0.1968   -0.0000 H       1  UNL1        0.2792
     10 H          -1.5497   -1.6417   -0.0000 H       1  UNL1        0.2908
@<TRIPOS>BOND
     1    10     8    1
     2     6     4    1
     3     9     8    1
     4     1     2    1
     5     1     4    2
     6     1     7    1
     7     2     3    2
     8     2     8   am
     9     4     5    1
