@<TRIPOS>MOLECULE
GS-295-0.out
 23 23 0 0 0
SMALL
MULLIKEN_CHARGES
****
Gaussian 16 # wB97XD def2tzvp, opt=(calcfc, maxcycles=50, maxstep=10), freq=norama
@<TRIPOS>ATOM
      1 C           2.8377    0.5597   -0.5146 C.2     1  UNL1       -0.2969
      2 C           1.4196    0.9294   -0.2446 C.2     1  UNL1        0.4522
      3 O           1.1219    2.0765    0.0523 O.2     1  UNL1       -0.4823
      4 C           3.5031   -0.4860   -0.0309 C.2     1  UNL1       -0.1014
      5 H           4.5507   -0.5626   -0.3065 H       1  UNL1        0.1510
      6 C           3.0103   -1.5654    0.8781 C.3     1  UNL1       -0.3741
      7 H           3.7271   -1.7182    1.6866 H       1  UNL1        0.1443
      8 H           2.0382   -1.3468    1.3167 H       1  UNL1        0.1424
      9 H           2.9414   -2.5138    0.3382 H       1  UNL1        0.1521
     10 H           3.3645    1.2974   -1.1087 H       1  UNL1        0.1584
     11 N           0.5189   -0.0812   -0.3867 N.am    1  UNL1       -0.2872
     12 C          -0.8703   -0.0785   -0.1805 C.ar    1  UNL1        0.3125
     13 C          -1.5574   -1.2536   -0.4900 C.ar    1  UNL1       -0.3028
     14 C          -2.9253   -1.3353   -0.3050 C.ar    1  UNL1       -0.0966
     15 C          -3.6322   -0.2480    0.1913 C.ar    1  UNL1       -0.1880
     16 C          -2.9486    0.9173    0.4991 C.ar    1  UNL1       -0.1040
     17 C          -1.5754    1.0145    0.3192 C.ar    1  UNL1       -0.3001
     18 H           0.8976   -0.9504   -0.7248 H       1  UNL1        0.2790
     19 H          -1.0131   -2.1069   -0.8775 H       1  UNL1        0.1449
     20 H          -3.4405   -2.2552   -0.5508 H       1  UNL1        0.1464
     21 H          -4.7028   -0.3106    0.3357 H       1  UNL1        0.1436
     22 H          -3.4865    1.7729    0.8880 H       1  UNL1        0.1447
     23 H          -1.0531    1.9257    0.5598 H       1  UNL1        0.1617
@<TRIPOS>BOND
     1    10     1    1
     2    19    13    1
     3    18    11    1
     4    20    14    1
     5     1     2    1
     6     1     4    2
     7    13    14   ar
     8    13    12   ar
     9    11     2   am
    10    11    12    1
    11     5     4    1
    12    14    15   ar
    13     2     3    2
    14    12    17   ar
    15     4     6    1
    16    15    21    1
    17    15    16   ar
    18    17    16   ar
    19    17    23    1
    20     9     6    1
    21    16    22    1
    22     6     8    1
    23     6     7    1
