@<TRIPOS>MOLECULE
GS-230-0.out
 26 26 0 0 0
SMALL
MULLIKEN_CHARGES
****
Gaussian 16 # wB97XD def2tzvp, opt=(calcfc, maxcycles=50, maxstep=10), freq=norama
@<TRIPOS>ATOM
      1 C           0.9660   -0.3987   -0.1538 C.2     1  UNL1        0.0198
      2 C           0.8511    1.0804   -0.4103 C.2     1  UNL1        0.2308
      3 O           1.2349    1.5244   -1.4870 O.2     1  UNL1       -0.4686
      4 C          -0.0303   -1.2740   -0.1005 C.2     1  UNL1       -0.2643
      5 H           0.2118   -2.3176    0.0675 H       1  UNL1        0.1719
      6 C          -1.4636   -0.9488   -0.1850 C.ar    1  UNL1        0.2064
      7 C          -2.3553   -1.6838    0.5976 C.ar    1  UNL1       -0.2219
      8 C          -3.7090   -1.3912    0.5914 C.ar    1  UNL1       -0.1357
      9 C          -4.1956   -0.3681   -0.2104 C.ar    1  UNL1       -0.1405
     10 C          -3.3214    0.3508   -1.0133 C.ar    1  UNL1       -0.1476
     11 C          -1.9663    0.0614   -1.0056 C.ar    1  UNL1       -0.2016
     12 H          -1.9791   -2.4831    1.2249 H       1  UNL1        0.1444
     13 H          -4.3857   -1.9646    1.2119 H       1  UNL1        0.1468
     14 H          -5.2537   -0.1399   -0.2188 H       1  UNL1        0.1480
     15 H          -3.6965    1.1360   -1.6571 H       1  UNL1        0.1470
     16 H          -1.3020    0.6119   -1.6592 H       1  UNL1        0.1607
     17 BR          2.7662   -0.9809   -0.0037 Br      1  UNL1       -0.0594
     18 N           0.3207    1.8347    0.5664 N.am    1  UNL1       -0.0713
     19 C           0.0439    3.2366    0.3189 C.3     1  UNL1       -0.2780
     20 C          -0.1146    1.3378    1.8578 C.3     1  UNL1       -0.3137
     21 H           0.3352    3.4903   -0.6948 H       1  UNL1        0.1530
     22 H          -1.0241    3.4260    0.4497 H       1  UNL1        0.1422
     23 H           0.5984    3.8587    1.0238 H       1  UNL1        0.1496
     24 H           0.3466    0.3818    2.0842 H       1  UNL1        0.1703
     25 H           0.1790    2.0543    2.6252 H       1  UNL1        0.1557
     26 H          -1.2015    1.2242    1.8815 H       1  UNL1        0.1559
@<TRIPOS>BOND
     1    16    11    1
     2    15    10    1
     3     3     2    2
     4    10    11   ar
     5    10     9   ar
     6    11     6   ar
     7    21    19    1
     8     2     1    1
     9     2    18   am
    10    14     9    1
    11     9     8   ar
    12     6     4    1
    13     6     7   ar
    14     1     4    2
    15     1    17    1
    16     4     5    1
    17    19    22    1
    18    19    18    1
    19    19    23    1
    20    18    20    1
    21     8     7   ar
    22     8    13    1
    23     7    12    1
    24    20    26    1
    25    20    24    1
    26    20    25    1
