@<TRIPOS>MOLECULE
GS-255-0.out
 20 20 0 0 0
SMALL
MULLIKEN_CHARGES
****
Gaussian 16 # wb97xd def2tzvp opt=(calcfc, maxcycles=100, maxstep=10) freq=noraman
@<TRIPOS>ATOM
      1 C          -3.0563   -0.6518    0.0165 C.2     1  UNL1       -0.2524
      2 C          -1.7845    0.1282   -0.0036 C.2     1  UNL1        0.4576
      3 O          -1.7608    1.3476   -0.0418 O.2     1  UNL1       -0.4846
      4 C          -4.2318   -0.0430   -0.0076 C.2     1  UNL1       -0.2574
      5 H          -5.1566   -0.6043    0.0065 H       1  UNL1        0.1667
      6 H          -4.2923    1.0382   -0.0425 H       1  UNL1        0.1584
      7 H          -2.9936   -1.7338    0.0513 H       1  UNL1        0.1522
      8 N          -0.6722   -0.6570    0.0243 N.am    1  UNL1       -0.2751
      9 C           0.6826   -0.2879    0.0118 C.ar    1  UNL1        0.3071
     10 C           1.6198   -1.3225   -0.0141 C.ar    1  UNL1       -0.2998
     11 C           2.9737   -1.0425   -0.0232 C.ar    1  UNL1       -0.0968
     12 C           3.4181    0.2731   -0.0079 C.ar    1  UNL1       -0.1883
     13 C           2.4872    1.2989    0.0180 C.ar    1  UNL1       -0.1041
     14 C           1.1245    1.0338    0.0284 C.ar    1  UNL1       -0.2931
     15 H          -0.8380   -1.6497    0.0458 H       1  UNL1        0.2639
     16 H           1.2822   -2.3523   -0.0274 H       1  UNL1        0.1457
     17 H           3.6846   -1.8587   -0.0432 H       1  UNL1        0.1467
     18 H           4.4775    0.4932   -0.0156 H       1  UNL1        0.1438
     19 H           2.8190    2.3296    0.0311 H       1  UNL1        0.1449
     20 H           0.4086    1.8387    0.0490 H       1  UNL1        0.1647
@<TRIPOS>BOND
     1    17    11    1
     2     6     4    1
     3     3     2    2
     4    16    10    1
     5    11    10   ar
     6    11    12   ar
     7    18    12    1
     8    10     9   ar
     9    12    13   ar
    10     4     5    1
    11     4     1    2
    12     2     1    1
    13     2     8   am
    14     9     8    1
    15     9    14   ar
    16     1     7    1
    17    13    14   ar
    18    13    19    1
    19     8    15    1
    20    14    20    1
