@<TRIPOS>MOLECULE
GS-287-0.out
 33 34 0 0 0
SMALL
MULLIKEN_CHARGES
****
Gaussian 16 # wB97XD def2tzvp, opt=(calcfc, maxcycles=50, maxstep=10), freq=norama
@<TRIPOS>ATOM
      1 C          -1.4109    1.1930   -0.0010 C.2     1  UNL1        0.0008
      2 C           0.0631    1.1940    0.3039 C.2     1  UNL1        0.3565
      3 O           0.5901    2.0343    1.0139 O.2     1  UNL1       -0.4707
      4 C          -2.0439    2.3211   -0.3312 C.2     1  UNL1       -0.1105
      5 H          -3.1132    2.2443   -0.5080 H       1  UNL1        0.1550
      6 C          -1.4737    3.6867   -0.5122 C.3     1  UNL1       -0.3511
      7 H          -1.8175    4.1016   -1.4624 H       1  UNL1        0.1362
      8 H          -1.8439    4.3528    0.2719 H       1  UNL1        0.1416
      9 H          -0.3874    3.7015   -0.4852 H       1  UNL1        0.1333
     10 C          -2.1274   -0.1066    0.0762 C.ar    1  UNL1        0.0594
     11 C          -3.0641   -0.4723   -0.8896 C.ar    1  UNL1       -0.2408
     12 C          -3.7497   -1.6740   -0.7931 C.ar    1  UNL1       -0.1402
     13 C          -3.5021   -2.5357    0.2651 C.ar    1  UNL1       -0.1388
     14 C          -2.5616   -2.1895    1.2259 C.ar    1  UNL1       -0.1464
     15 C          -1.8789   -0.9881    1.1300 C.ar    1  UNL1       -0.2053
     16 H          -3.2464    0.1849   -1.7308 H       1  UNL1        0.1595
     17 H          -4.4718   -1.9416   -1.5541 H       1  UNL1        0.1448
     18 H          -4.0335   -3.4759    0.3378 H       1  UNL1        0.1467
     19 H          -2.3605   -2.8563    2.0547 H       1  UNL1        0.1452
     20 H          -1.1501   -0.7267    1.8884 H       1  UNL1        0.1532
     21 N           0.7388    0.1731   -0.2928 N.am    1  UNL1       -0.2477
     22 C           2.0952   -0.1765   -0.2042 C.ar    1  UNL1        0.3068
     23 C           2.4866   -1.3538   -0.8447 C.ar    1  UNL1       -0.3067
     24 C           3.8055   -1.7670   -0.8083 C.ar    1  UNL1       -0.0981
     25 C           4.7576   -1.0155   -0.1321 C.ar    1  UNL1       -0.1866
     26 C           4.3682    0.1532    0.5021 C.ar    1  UNL1       -0.1106
     27 C           3.0482    0.5824    0.4726 C.ar    1  UNL1       -0.2949
     28 H           0.1747   -0.4556   -0.8420 H       1  UNL1        0.2680
     29 H           1.7492   -1.9468   -1.3734 H       1  UNL1        0.1454
     30 H           4.0892   -2.6828   -1.3111 H       1  UNL1        0.1463
     31 H           5.7900   -1.3384   -0.1023 H       1  UNL1        0.1435
     32 H           5.1000    0.7504    1.0317 H       1  UNL1        0.1443
     33 H           2.7562    1.4940    0.9670 H       1  UNL1        0.1619
@<TRIPOS>BOND
     1    16    11    1
     2    17    12    1
     3     7     6    1
     4    29    23    1
     5    30    24    1
     6    11    12   ar
     7    11    10   ar
     8    23    24   ar
     9    23    22   ar
    10    28    21    1
    11    24    25   ar
    12    12    13   ar
    13     6     9    1
    14     6     4    1
    15     6     8    1
    16     5     4    1
    17     4     1    2
    18    21    22    1
    19    21     2   am
    20    22    27   ar
    21    25    31    1
    22    25    26   ar
    23     1    10    1
    24     1     2    1
    25    10    15   ar
    26    13    18    1
    27    13    14   ar
    28     2     3    2
    29    27    26   ar
    30    27    33    1
    31    26    32    1
    32    15    14   ar
    33    15    20    1
    34    14    19    1
