@<TRIPOS>MOLECULE
GS-262-0.out
 19 18 0 0 0
SMALL
MULLIKEN_CHARGES
****
Gaussian 16 # wB97XD def2tzvp, opt=(calcfc, maxcycles=50, maxstep=10), freq=norama
@<TRIPOS>ATOM
      1 C           1.3106    0.1080   -0.1313 C.2     1  UNL1       -0.0858
      2 C          -0.0367   -0.5637   -0.1490 C.2     1  UNL1        0.3349
      3 O          -0.0849   -1.7728   -0.3687 O.2     1  UNL1       -0.5089
      4 C           1.6363    0.9799   -1.0758 C.2     1  UNL1       -0.3013
      5 H           2.6346    1.3978   -1.1317 H       1  UNL1        0.1468
      6 H           0.9205    1.3021   -1.8229 H       1  UNL1        0.1525
      7 C           2.2520   -0.3750    0.9297 C.3     1  UNL1       -0.3424
      8 H           2.3662   -1.4589    0.8742 H       1  UNL1        0.1389
      9 H           3.2312    0.0902    0.8232 H       1  UNL1        0.1310
     10 H           1.8613   -0.1418    1.9238 H       1  UNL1        0.1385
     11 N          -1.1390    0.1831    0.0579 N.am    1  UNL1       -0.1107
     12 C          -2.4493   -0.4280   -0.0480 C.3     1  UNL1       -0.2844
     13 C          -1.1391    1.5614    0.5095 C.3     1  UNL1       -0.2933
     14 H          -2.3704   -1.3699   -0.5815 H       1  UNL1        0.1471
     15 H          -2.8731   -0.6124    0.9429 H       1  UNL1        0.1430
     16 H          -3.1156    0.2447   -0.5903 H       1  UNL1        0.1406
     17 H          -0.1368    1.8836    0.7703 H       1  UNL1        0.1656
     18 H          -1.5322    2.2220   -0.2669 H       1  UNL1        0.1458
     19 H          -1.7762    1.6485    1.3922 H       1  UNL1        0.1421
@<TRIPOS>BOND
     1     6     4    1
     2     5     4    1
     3     4     1    2
     4    16    12    1
     5    14    12    1
     6     3     2    2
     7    18    13    1
     8     2     1    1
     9     2    11   am
    10     1     7    1
    11    12    11    1
    12    12    15    1
    13    11    13    1
    14    13    17    1
    15    13    19    1
    16     9     7    1
    17     8     7    1
    18     7    10    1
