@<TRIPOS>MOLECULE
GS-210-1.out
 21 21 0 0 0
SMALL
MULLIKEN_CHARGES
****
Gaussian 16 # wB97XD def2tzvp, opt=(calcfc, maxcycles=70, maxstep=1), freq=noraman
@<TRIPOS>ATOM
      1 C           1.8740    1.1222   -0.2461 C.2     1  UNL1       -0.2210
      2 C           2.4134   -0.2067    0.1387 C.2     1  UNL1        0.2855
      3 O           3.4670   -0.5748   -0.3451 O.2     1  UNL1       -0.4100
      4 C           0.6012    1.5070   -0.3642 C.2     1  UNL1       -0.1424
      5 H           0.4260    2.5517   -0.6050 H       1  UNL1        0.1655
      6 C          -0.6125    0.6855   -0.2428 C.ar    1  UNL1        0.1915
      7 C          -1.7257    1.2015    0.4226 C.ar    1  UNL1       -0.2255
      8 C          -2.8771    0.4449    0.5619 C.ar    1  UNL1       -0.1298
      9 C          -2.9431   -0.8297    0.0143 C.ar    1  UNL1       -0.1494
     10 C          -1.8541   -1.3395   -0.6776 C.ar    1  UNL1       -0.1261
     11 C          -0.6982   -0.5862   -0.8077 C.ar    1  UNL1       -0.2529
     12 H          -1.6797    2.1984    0.8445 H       1  UNL1        0.1446
     13 H          -3.7277    0.8522    1.0933 H       1  UNL1        0.1470
     14 H          -3.8459   -1.4182    0.1159 H       1  UNL1        0.1484
     15 H          -1.9063   -2.3242   -1.1242 H       1  UNL1        0.1477
     16 H           0.1394   -0.9803   -1.3699 H       1  UNL1        0.1804
     17 H           2.6517    1.8434   -0.4745 H       1  UNL1        0.1575
     18 C           1.7305   -1.0483    1.1894 C.3     1  UNL1       -0.3715
     19 H           0.8657   -0.5643    1.6350 H       1  UNL1        0.1474
     20 H           1.4236   -1.9987    0.7513 H       1  UNL1        0.1543
     21 H           2.4677   -1.2656    1.9637 H       1  UNL1        0.1589
@<TRIPOS>BOND
     1    16    11    1
     2    15    10    1
     3    11    10   ar
     4    11     6   ar
     5    10     9   ar
     6     5     4    1
     7    17     1    1
     8     4     1    2
     9     4     6    1
    10     3     2    2
    11     1     2    1
    12     6     7   ar
    13     9    14    1
    14     9     8   ar
    15     2    18    1
    16     7     8   ar
    17     7    12    1
    18     8    13    1
    19    20    18    1
    20    18    19    1
    21    18    21    1
