@<TRIPOS>MOLECULE
GS-267-0.out
 10 9 0 0 0
SMALL
MULLIKEN_CHARGES
****
Gaussian 16 # wB97XD def2tzvp, opt=(calcfc, maxcycles=50, maxstep=10), freq=norama
@<TRIPOS>ATOM
      1 C          -0.3343    0.6366    0.0000 C.2     1  UNL1       -0.0136
      2 C          -1.5602   -0.2456   -0.0000 C.2     1  UNL1        0.3149
      3 O          -2.6680    0.2673   -0.0000 O.2     1  UNL1       -0.4648
      4 C          -0.4462    1.9531    0.0000 C.2     1  UNL1       -0.2577
      5 H           0.4127    2.6084    0.0000 H       1  UNL1        0.1823
      6 H          -1.4367    2.3886    0.0000 H       1  UNL1        0.1784
      7 BR          1.3889   -0.1727   -0.0000 Br      1  UNL1       -0.0812
      8 N          -1.3678   -1.5710    0.0000 N.am    1  UNL1       -0.4301
      9 H          -2.1728   -2.1728    0.0000 H       1  UNL1        0.2874
     10 H          -0.4531   -1.9848    0.0000 H       1  UNL1        0.2844
@<TRIPOS>BOND
     1     3     2    2
     2     1     2    1
     3     1     7    1
     4     1     4    2
     5     2     8   am
     6     4     5    1
     7     4     6    1
     8     8     9    1
     9     8    10    1
