@<TRIPOS>MOLECULE
GS-20-1.out
 35 36 0 0 0
SMALL
MULLIKEN_CHARGES
****
Gaussian 16 # wB97XD def2tzvp, opt=(maxcycles=70, maxstep=1), freq=noraman, scrf=(
@<TRIPOS>ATOM
      1 C          -0.2777   -1.5807   -0.1996 C.2     1  UNL1        0.0100
      2 C          -1.7655   -1.7421   -0.1834 C.2     1  UNL1        0.3009
      3 O          -2.3837   -2.3414   -1.0313 O.2     1  UNL1       -0.4157
      4 C           0.2855   -0.3680   -0.0970 C.2     1  UNL1        0.1695
      5 C           1.7599   -0.1807   -0.0411 C.ar    1  UNL1        0.0964
      6 C           2.3864    0.7035   -0.9184 C.ar    1  UNL1       -0.2098
      7 C           3.7575    0.8952   -0.8687 C.ar    1  UNL1       -0.1563
      8 C           4.5217    0.2209    0.0744 C.ar    1  UNL1       -0.1335
      9 C           3.9060   -0.6468    0.9642 C.ar    1  UNL1       -0.1230
     10 C           2.5349   -0.8475    0.9048 C.ar    1  UNL1       -0.2732
     11 H           1.7928    1.2413   -1.6478 H       1  UNL1        0.1558
     12 H           4.2307    1.5761   -1.5648 H       1  UNL1        0.1432
     13 H           5.5921    0.3763    0.1186 H       1  UNL1        0.1461
     14 H           4.4931   -1.1681    1.7097 H       1  UNL1        0.1439
     15 H           2.0568   -1.5207    1.6054 H       1  UNL1        0.1570
     16 C          -0.5140    0.8866   -0.0705 C.ar    1  UNL1        0.1428
     17 C          -0.3001    1.8320    0.9314 C.ar    1  UNL1       -0.2307
     18 C          -1.0471    2.9975    0.9724 C.ar    1  UNL1       -0.1599
     19 C          -2.0060    3.2468   -0.0012 C.ar    1  UNL1       -0.1295
     20 C          -2.2088    2.3244   -1.0163 C.ar    1  UNL1       -0.1426
     21 C          -1.4653    1.1537   -1.0517 C.ar    1  UNL1       -0.2511
     22 H           0.4503    1.6450    1.6900 H       1  UNL1        0.1537
     23 H          -0.8798    3.7154    1.7653 H       1  UNL1        0.1423
     24 H          -2.5859    4.1605    0.0280 H       1  UNL1        0.1454
     25 H          -2.9430    2.5174   -1.7881 H       1  UNL1        0.1435
     26 H          -1.6178    0.4436   -1.8555 H       1  UNL1        0.1542
     27 C           0.4567   -2.8732   -0.4135 C.3     1  UNL1       -0.3898
     28 H           0.4229   -3.4982    0.4824 H       1  UNL1        0.1479
     29 H          -0.0237   -3.4329   -1.2172 H       1  UNL1        0.1460
     30 H           1.4988   -2.7076   -0.6751 H       1  UNL1        0.1510
     31 O          -2.3333   -1.2013    0.8905 O.3     1  UNL1       -0.2651
     32 C          -3.7604   -1.2375    0.9431 C.3     1  UNL1       -0.2009
     33 H          -4.0325   -0.7574    1.8782 H       1  UNL1        0.1485
     34 H          -4.1806   -0.6887    0.1002 H       1  UNL1        0.1412
     35 H          -4.1202   -2.2654    0.9251 H       1  UNL1        0.1421
@<TRIPOS>BOND
     1    26    21    1
     2    25    20    1
     3    11     6    1
     4    12     7    1
     5    29    27    1
     6    21    20   ar
     7    21    16   ar
     8     3     2    2
     9    20    19   ar
    10     6     7   ar
    11     6     5   ar
    12     7     8   ar
    13    30    27    1
    14    27     1    1
    15    27    28    1
    16     1     2    1
    17     1     4    2
    18     2    31    1
    19     4    16    1
    20     4     5    1
    21    16    17   ar
    22     5    10   ar
    23    19    24    1
    24    19    18   ar
    25     8    13    1
    26     8     9   ar
    27    34    32    1
    28    31    32    1
    29    10     9   ar
    30    10    15    1
    31    35    32    1
    32    17    18   ar
    33    17    22    1
    34    32    33    1
    35     9    14    1
    36    18    23    1
