@<TRIPOS>MOLECULE
GS-21-1.out
 36 37 0 0 0
SMALL
MULLIKEN_CHARGES
****
Gaussian 16 # wB97XD def2tzvp, opt=(maxcycles=70, maxstep=1), freq=noraman, scrf=(
@<TRIPOS>ATOM
      1 C          -0.2942   -1.5700   -0.2192 C.2     1  UNL1        0.0365
      2 C          -1.7923   -1.7199   -0.2204 C.2     1  UNL1        0.2168
      3 O          -2.3819   -2.2493   -1.1571 O.2     1  UNL1       -0.4866
      4 C           0.2863   -0.3660   -0.1147 C.2     1  UNL1        0.1767
      5 C           1.7635   -0.1977   -0.0440 C.ar    1  UNL1        0.0882
      6 C           2.4123    0.6599   -0.9314 C.ar    1  UNL1       -0.2145
      7 C           3.7854    0.8343   -0.8702 C.ar    1  UNL1       -0.1563
      8 C           4.5303    0.1682    0.0939 C.ar    1  UNL1       -0.1347
      9 C           3.8928   -0.6736    0.9932 C.ar    1  UNL1       -0.1236
     10 C           2.5194   -0.8556    0.9231 C.ar    1  UNL1       -0.2753
     11 H           1.8341    1.1911   -1.6780 H       1  UNL1        0.1537
     12 H           4.2754    1.4950   -1.5743 H       1  UNL1        0.1425
     13 H           5.6023    0.3095    0.1467 H       1  UNL1        0.1454
     14 H           4.4646   -1.1888    1.7547 H       1  UNL1        0.1431
     15 H           2.0242   -1.5089    1.6308 H       1  UNL1        0.1550
     16 C          -0.4953    0.9021   -0.0833 C.ar    1  UNL1        0.0230
     17 C          -0.2672    1.8374    0.9254 C.ar    1  UNL1       -0.1972
     18 C          -0.9960    3.0145    0.9765 C.ar    1  UNL1       -0.1603
     19 C          -1.9525    3.2850    0.0069 C.ar    1  UNL1       -0.1250
     20 C          -2.1719    2.3715   -1.0134 C.ar    1  UNL1       -0.1538
     21 C          -1.4472    1.1899   -1.0589 C.ar    1  UNL1       -0.2020
     22 H           0.4822    1.6342    1.6811 H       1  UNL1        0.1540
     23 H          -0.8159    3.7241    1.7742 H       1  UNL1        0.1422
     24 H          -2.5185    4.2071    0.0432 H       1  UNL1        0.1452
     25 H          -2.9061    2.5801   -1.7813 H       1  UNL1        0.1428
     26 H          -1.6170    0.4835   -1.8620 H       1  UNL1        0.1459
     27 C           0.4282   -2.8723   -0.4062 C.3     1  UNL1       -0.3874
     28 H          -0.0462   -3.4318   -1.2140 H       1  UNL1        0.1434
     29 H           1.4785   -2.7278   -0.6472 H       1  UNL1        0.1478
     30 H           0.3639   -3.4878    0.4950 H       1  UNL1        0.1454
     31 N          -2.4250   -1.2928    0.8837 N.am    1  UNL1       -0.2710
     32 C          -3.8664   -1.2750    0.9866 C.3     1  UNL1       -0.2555
     33 H          -1.8843   -0.8159    1.5833 H       1  UNL1        0.2756
     34 H          -4.2748   -2.2582    0.7553 H       1  UNL1        0.1372
     35 H          -4.1413   -1.0076    2.0040 H       1  UNL1        0.1476
     36 H          -4.3029   -0.5484    0.2966 H       1  UNL1        0.1351
@<TRIPOS>BOND
     1    26    21    1
     2    25    20    1
     3    11     6    1
     4    12     7    1
     5    28    27    1
     6     3     2    2
     7    21    20   ar
     8    21    16   ar
     9    20    19   ar
    10     6     7   ar
    11     6     5   ar
    12     7     8   ar
    13    29    27    1
    14    27     1    1
    15    27    30    1
    16     2     1    1
    17     2    31   am
    18     1     4    2
    19     4    16    1
    20     4     5    1
    21    16    17   ar
    22     5    10   ar
    23    19    24    1
    24    19    18   ar
    25     8    13    1
    26     8     9   ar
    27    36    32    1
    28    34    32    1
    29    31    32    1
    30    31    33    1
    31    10     9   ar
    32    10    15    1
    33    17    18   ar
    34    17    22    1
    35    18    23    1
    36    32    35    1
    37     9    14    1
