@<TRIPOS>MOLECULE
GS-202-1.out
 31 32 0 0 0
SMALL
MULLIKEN_CHARGES
****
Gaussian 16 # wB97XD def2tzvp, opt=(calcfc, maxcycles=70, maxstep=1), freq=noraman
@<TRIPOS>ATOM
      1 C          -0.4897    0.1779   -0.0475 C.2     1  UNL1        0.0876
      2 C          -0.1545    1.5822    0.3850 C.2     1  UNL1        0.1989
      3 O          -0.3596    2.5309   -0.3390 O.2     1  UNL1       -0.3766
      4 C           0.4445   -0.7364   -0.3225 C.2     1  UNL1       -0.1908
      5 H           0.1006   -1.7312   -0.5906 H       1  UNL1        0.1716
      6 C           1.9063   -0.5785   -0.2882 C.ar    1  UNL1        0.1993
      7 C           2.6824   -1.6715    0.1056 C.ar    1  UNL1       -0.2395
      8 C           4.0613   -1.5741    0.1833 C.ar    1  UNL1       -0.1413
      9 C           4.6950   -0.3843   -0.1495 C.ar    1  UNL1       -0.1463
     10 C           3.9389    0.7001   -0.5691 C.ar    1  UNL1       -0.1292
     11 C           2.5577    0.6038   -0.6430 C.ar    1  UNL1       -0.2622
     12 H           2.1931   -2.6035    0.3632 H       1  UNL1        0.1425
     13 H           4.6437   -2.4297    0.5008 H       1  UNL1        0.1454
     14 H           5.7734   -0.3075   -0.0943 H       1  UNL1        0.1472
     15 H           4.4260    1.6248   -0.8515 H       1  UNL1        0.1463
     16 H           1.9882    1.4491   -1.0061 H       1  UNL1        0.1667
     17 C          -1.9379   -0.1547   -0.0823 C.ar    1  UNL1        0.1614
     18 C          -2.8753    0.7314   -0.6143 C.ar    1  UNL1       -0.2433
     19 C          -4.2200    0.3960   -0.6522 C.ar    1  UNL1       -0.1388
     20 C          -4.6533   -0.8231   -0.1518 C.ar    1  UNL1       -0.1445
     21 C          -3.7311   -1.7054    0.3928 C.ar    1  UNL1       -0.1413
     22 C          -2.3868   -1.3723    0.4319 C.ar    1  UNL1       -0.2614
     23 H          -2.5468    1.6812   -1.0140 H       1  UNL1        0.1530
     24 H          -4.9320    1.0918   -1.0778 H       1  UNL1        0.1440
     25 H          -5.7042   -1.0814   -0.1792 H       1  UNL1        0.1461
     26 H          -4.0599   -2.6534    0.7995 H       1  UNL1        0.1448
     27 H          -1.6782   -2.0559    0.8825 H       1  UNL1        0.1656
     28 C           0.3670    1.7297    1.7843 C.3     1  UNL1       -0.3687
     29 H           1.2257    1.0750    1.9391 H       1  UNL1        0.1639
     30 H           0.6347    2.7643    1.9871 H       1  UNL1        0.1391
     31 H          -0.4128    1.4049    2.4787 H       1  UNL1        0.1605
@<TRIPOS>BOND
     1    24    19    1
     2    23    18    1
     3    16    11    1
     4    15    10    1
     5    19    18   ar
     6    19    20   ar
     7    11    10   ar
     8    11     6   ar
     9    18    17   ar
    10     5     4    1
    11    10     9   ar
    12     3     2    2
    13     4     6    1
    14     4     1    2
    15     6     7   ar
    16    25    20    1
    17    20    21   ar
    18     9    14    1
    19     9     8   ar
    20    17     1    1
    21    17    22   ar
    22     1     2    1
    23     7     8   ar
    24     7    12    1
    25     8    13    1
    26     2    28    1
    27    21    22   ar
    28    21    26    1
    29    22    27    1
    30    28    29    1
    31    28    30    1
    32    28    31    1
