@<TRIPOS>MOLECULE
GS-200-0.out
 28 29 0 0 0
SMALL
MULLIKEN_CHARGES
****
Gaussian 16 # wB97XD def2tzvp, opt=(maxcycles=50, maxstep=10), freq=noraman, geom=
@<TRIPOS>ATOM
      1 C           0.0063   -0.8410   -0.0128 C.2     1  UNL1        0.0192
      2 C          -1.3972   -1.1227    0.4812 C.2     1  UNL1        0.3119
      3 O          -1.5787   -2.0748    1.2030 O.2     1  UNL1       -0.3565
      4 C           0.8839   -0.0513    0.5920 C.2     1  UNL1        0.0218
      5 C           2.2831    0.1977    0.1933 C.ar    1  UNL1        0.1761
      6 C           2.6950    1.4827   -0.1506 C.ar    1  UNL1       -0.2253
      7 C           4.0067    1.7118   -0.5313 C.ar    1  UNL1       -0.1422
      8 C           4.9169    0.6638   -0.5602 C.ar    1  UNL1       -0.1305
      9 C           4.5118   -0.6152   -0.2084 C.ar    1  UNL1       -0.1277
     10 C           3.1983   -0.8501    0.1670 C.ar    1  UNL1       -0.2466
     11 H           1.9864    2.3011   -0.1234 H       1  UNL1        0.1566
     12 H           4.3192    2.7111   -0.8051 H       1  UNL1        0.1491
     13 H           5.9427    0.8457   -0.8541 H       1  UNL1        0.1506
     14 H           5.2198   -1.4337   -0.2229 H       1  UNL1        0.1495
     15 H           2.8815   -1.8470    0.4453 H       1  UNL1        0.1641
     16 CL          0.3417    0.8086    2.0120 Cl      1  UNL1       -0.0719
     17 CL          0.3775   -1.6891   -1.4740 Cl      1  UNL1       -0.0484
     18 C          -2.4868   -0.2321    0.0176 C.ar    1  UNL1        0.0253
     19 C          -3.7955   -0.5105    0.4124 C.ar    1  UNL1       -0.2056
     20 C          -4.8315    0.3052   -0.0011 C.ar    1  UNL1       -0.1238
     21 C          -4.5684    1.4040   -0.8113 C.ar    1  UNL1       -0.1142
     22 C          -3.2692    1.6861   -1.2074 C.ar    1  UNL1       -0.1556
     23 C          -2.2288    0.8701   -0.7946 C.ar    1  UNL1       -0.1645
     24 H          -3.9851   -1.3689    1.0431 H       1  UNL1        0.1519
     25 H          -5.8463    0.0883    0.3057 H       1  UNL1        0.1527
     26 H          -5.3810    2.0422   -1.1342 H       1  UNL1        0.1548
     27 H          -3.0660    2.5419   -1.8372 H       1  UNL1        0.1520
     28 H          -1.2158    1.0955   -1.1030 H       1  UNL1        0.1771
@<TRIPOS>BOND
     1    27    22    1
     2    17     1    1
     3    22    21   ar
     4    22    23   ar
     5    26    21    1
     6    28    23    1
     7    13     8    1
     8    21    20   ar
     9    12     7    1
    10    23    18   ar
    11     8     7   ar
    12     8     9   ar
    13     7     6   ar
    14    14     9    1
    15     9    10   ar
    16     6    11    1
    17     6     5   ar
    18     1     2    1
    19     1     4    2
    20    20    25    1
    21    20    19   ar
    22    18    19   ar
    23    18     2    1
    24    10     5   ar
    25    10    15    1
    26     5     4    1
    27    19    24    1
    28     2     3    2
    29     4    16    1
