@<TRIPOS>MOLECULE
GS-242-0.out
 21 21 0 0 0
SMALL
MULLIKEN_CHARGES
****
Gaussian 16 # wB97XD def2tzvp, opt=(calcfc, maxcycles=50, maxstep=10), freq=norama
@<TRIPOS>ATOM
      1 C          -1.0781    0.6647   -0.2144 C.2     1  UNL1       -0.0160
      2 C          -2.1304   -0.3607    0.1179 C.2     1  UNL1        0.2454
      3 O          -3.2540   -0.2681   -0.3274 O.2     1  UNL1       -0.3972
      4 C          -1.4799    1.8959   -0.5189 C.2     1  UNL1       -0.2732
      5 H          -0.7698    2.6842   -0.7353 H       1  UNL1        0.1677
      6 H          -2.5340    2.1399   -0.5512 H       1  UNL1        0.1595
      7 C           0.3584    0.3009   -0.1258 C.ar    1  UNL1        0.1841
      8 C           1.2373    1.0563    0.6473 C.ar    1  UNL1       -0.2495
      9 C           2.5843    0.7314    0.7073 C.ar    1  UNL1       -0.1317
     10 C           3.0713   -0.3548   -0.0047 C.ar    1  UNL1       -0.1480
     11 C           2.2041   -1.1145   -0.7778 C.ar    1  UNL1       -0.1303
     12 C           0.8581   -0.7905   -0.8353 C.ar    1  UNL1       -0.2622
     13 H           0.8579    1.8983    1.2131 H       1  UNL1        0.1556
     14 H           3.2534    1.3265    1.3159 H       1  UNL1        0.1452
     15 H           4.1222   -0.6100    0.0432 H       1  UNL1        0.1469
     16 H           2.5772   -1.9606   -1.3407 H       1  UNL1        0.1460
     17 H           0.1915   -1.3832   -1.4507 H       1  UNL1        0.1687
     18 C          -1.7480   -1.4750    1.0538 C.3     1  UNL1       -0.3659
     19 H          -1.1349   -1.1025    1.8754 H       1  UNL1        0.1531
     20 H          -2.6460   -1.9564    1.4336 H       1  UNL1        0.1427
     21 H          -1.1476   -2.2135    0.5185 H       1  UNL1        0.1592
@<TRIPOS>BOND
     1    17    12    1
     2    16    11    1
     3    12    11   ar
     4    12     7   ar
     5    11    10   ar
     6     5     4    1
     7     6     4    1
     8     4     1    2
     9     3     2    2
    10     1     7    1
    11     1     2    1
    12     7     8   ar
    13    10    15    1
    14    10     9   ar
    15     2    18    1
    16    21    18    1
    17     8     9   ar
    18     8    13    1
    19     9    14    1
    20    18    20    1
    21    18    19    1
