@<TRIPOS>MOLECULE
GS-24-1.out
 41 43 0 0 0
SMALL
MULLIKEN_CHARGES
****
Gaussian 16 # wB97XD def2tzvp, opt=(maxcycles=70, maxstep=1), freq=noraman, scrf=(
@<TRIPOS>ATOM
      1 C           0.3164   -1.4302   -0.7679 C.2     1  UNL1       -0.0046
      2 C          -1.1499   -1.4798   -1.0947 C.2     1  UNL1        0.2187
      3 O          -1.5187   -1.9192   -2.1667 O.2     1  UNL1       -0.3933
      4 C           0.9121   -0.2841   -0.4047 C.2     1  UNL1        0.1457
      5 C           2.3410   -0.2176    0.0006 C.ar    1  UNL1        0.0793
      6 C           3.1974    0.7053   -0.5984 C.ar    1  UNL1       -0.2218
      7 C           4.5271    0.7864   -0.2176 C.ar    1  UNL1       -0.1560
      8 C           5.0167   -0.0410    0.7843 C.ar    1  UNL1       -0.1310
      9 C           4.1688   -0.9497    1.4000 C.ar    1  UNL1       -0.1226
     10 C           2.8411   -1.0382    1.0090 C.ar    1  UNL1       -0.2677
     11 H           2.8169    1.3613   -1.3721 H       1  UNL1        0.1538
     12 H           5.1823    1.5001   -0.7009 H       1  UNL1        0.1428
     13 H           6.0538    0.0271    1.0873 H       1  UNL1        0.1458
     14 H           4.5398   -1.5906    2.1898 H       1  UNL1        0.1431
     15 H           2.1808   -1.7443    1.4970 H       1  UNL1        0.1626
     16 C           0.1863    1.0132   -0.3970 C.ar    1  UNL1        0.1812
     17 C           0.2132    1.8214    0.7397 C.ar    1  UNL1       -0.2552
     18 C          -0.4918    3.0115    0.7759 C.ar    1  UNL1       -0.1442
     19 C          -1.2174    3.4269   -0.3344 C.ar    1  UNL1       -0.1303
     20 C          -1.2263    2.6465   -1.4794 C.ar    1  UNL1       -0.1440
     21 C          -0.5270    1.4481   -1.5105 C.ar    1  UNL1       -0.2574
     22 H           0.7768    1.5010    1.6077 H       1  UNL1        0.1543
     23 H          -0.4769    3.6186    1.6722 H       1  UNL1        0.1423
     24 H          -1.7658    4.3599   -0.3072 H       1  UNL1        0.1452
     25 H          -1.7761    2.9698   -2.3542 H       1  UNL1        0.1427
     26 H          -0.5288    0.8471   -2.4112 H       1  UNL1        0.1540
     27 C           1.0103   -2.7503   -0.9500 C.3     1  UNL1       -0.3897
     28 H           0.7438   -3.4462   -0.1498 H       1  UNL1        0.1474
     29 H           0.6883   -3.1995   -1.8905 H       1  UNL1        0.1463
     30 H           2.0923   -2.6436   -0.9624 H       1  UNL1        0.1507
     31 C          -2.1455   -1.0627   -0.0625 C.ar    1  UNL1        0.1353
     32 C          -1.8203   -1.0204    1.2902 C.ar    1  UNL1       -0.1962
     33 C          -2.7793   -0.6700    2.2273 C.ar    1  UNL1       -0.1540
     34 C          -4.0635   -0.3436    1.8168 C.ar    1  UNL1       -0.1243
     35 C          -4.3932   -0.3798    0.4672 C.ar    1  UNL1       -0.1183
     36 C          -3.4410   -0.7474   -0.4665 C.ar    1  UNL1       -0.2439
     37 H          -0.8159   -1.2631    1.6117 H       1  UNL1        0.1769
     38 H          -2.5223   -0.6468    3.2784 H       1  UNL1        0.1447
     39 H          -4.8095   -0.0594    2.5482 H       1  UNL1        0.1495
     40 H          -5.3939   -0.1207    0.1461 H       1  UNL1        0.1473
     41 H          -3.6868   -0.7829   -1.5198 H       1  UNL1        0.1449
@<TRIPOS>BOND
     1    26    21    1
     2    25    20    1
     3     3     2    2
     4    29    27    1
     5    41    36    1
     6    21    20   ar
     7    21    16   ar
     8    20    19   ar
     9    11     6    1
    10     2     1    1
    11     2    31    1
    12    30    27    1
    13    27     1    1
    14    27    28    1
    15     1     4    2
    16    12     7    1
    17     6     7   ar
    18     6     5   ar
    19    36    31   ar
    20    36    35   ar
    21     4    16    1
    22     4     5    1
    23    16    17   ar
    24    19    24    1
    25    19    18   ar
    26     7     8   ar
    27    31    32   ar
    28     5    10   ar
    29    40    35    1
    30    35    34   ar
    31    17    18   ar
    32    17    22    1
    33    18    23    1
    34     8    13    1
    35     8     9   ar
    36    10     9   ar
    37    10    15    1
    38    32    37    1
    39    32    33   ar
    40     9    14    1
    41    34    33   ar
    42    34    39    1
    43    33    38    1
