@<TRIPOS>MOLECULE
GS-293-0.out
 16 15 0 0 0
SMALL
MULLIKEN_CHARGES
****
Gaussian 16 # wB97XD def2tzvp, opt=(calcfc, maxcycles=50, maxstep=10), freq=norama
@<TRIPOS>ATOM
      1 C           0.9172    0.9859   -0.4077 C.2     1  UNL1       -0.2744
      2 C          -0.4809    0.6453   -0.0189 C.2     1  UNL1        0.4046
      3 O          -1.1844    1.4607    0.5722 O.2     1  UNL1       -0.5112
      4 C           2.0079    0.2508   -0.2097 C.2     1  UNL1       -0.1074
      5 H           2.9520    0.6870   -0.5230 H       1  UNL1        0.1477
      6 C           2.1151   -1.0992    0.4229 C.3     1  UNL1       -0.3622
      7 H           2.9195   -1.0977    1.1606 H       1  UNL1        0.1400
      8 H           1.1951   -1.4133    0.9127 H       1  UNL1        0.1359
      9 H           2.3796   -1.8495   -0.3274 H       1  UNL1        0.1474
     10 H           1.0170    1.9815   -0.8250 H       1  UNL1        0.1553
     11 N          -0.9318   -0.5723   -0.3654 N.am    1  UNL1       -0.3279
     12 C          -2.2711   -1.0174   -0.0506 C.3     1  UNL1       -0.2491
     13 H          -0.3417   -1.1631   -0.9228 H       1  UNL1        0.2831
     14 H          -2.3906   -2.0378   -0.4057 H       1  UNL1        0.1468
     15 H          -2.4423   -0.9952    1.0262 H       1  UNL1        0.1371
     16 H          -3.0197   -0.3844   -0.5305 H       1  UNL1        0.1343
@<TRIPOS>BOND
     1    13    11    1
     2    10     1    1
     3    16    12    1
     4     5     4    1
     5     1     4    2
     6     1     2    1
     7    14    12    1
     8    11    12    1
     9    11     2   am
    10     9     6    1
    11     4     6    1
    12    12    15    1
    13     2     3    2
    14     6     8    1
    15     6     7    1
