@<TRIPOS>MOLECULE
GS-223-0.out
 33 34 0 0 0
SMALL
MULLIKEN_CHARGES
****
Gaussian 16 # wB97XD def2tzvp, opt=(calcfc, maxcycles=50, maxstep=10), freq=norama
@<TRIPOS>ATOM
      1 C           1.4998    2.0935   -0.1943 C.2     1  UNL1        0.0322
      2 C           0.0681    1.8155    0.1723 C.2     1  UNL1        0.3171
      3 O          -0.4852    2.4288    1.0702 O.2     1  UNL1       -0.4617
      4 C           2.4320    1.1396   -0.2445 C.2     1  UNL1       -0.2071
      5 H           3.4312    1.4401   -0.5478 H       1  UNL1        0.1524
      6 C           2.2764   -0.2966    0.0558 C.ar    1  UNL1        0.1253
      7 C           2.9270   -1.2324   -0.7491 C.ar    1  UNL1       -0.2134
      8 C           2.7855   -2.5911   -0.5147 C.ar    1  UNL1       -0.1419
      9 C           2.0029   -3.0377    0.5406 C.ar    1  UNL1       -0.1397
     10 C           1.3719   -2.1162    1.3647 C.ar    1  UNL1       -0.1530
     11 C           1.5112   -0.7583    1.1276 C.ar    1  UNL1       -0.1931
     12 H           3.5402   -0.8887   -1.5738 H       1  UNL1        0.1416
     13 H           3.2891   -3.3025   -1.1569 H       1  UNL1        0.1445
     14 H           1.8933   -4.0985    0.7265 H       1  UNL1        0.1464
     15 H           0.7736   -2.4554    2.2008 H       1  UNL1        0.1451
     16 H           1.0294   -0.0492    1.7896 H       1  UNL1        0.1573
     17 C           1.8017    3.5395   -0.4516 C.3     1  UNL1       -0.3551
     18 H           1.5697    4.1355    0.4330 H       1  UNL1        0.1404
     19 H           2.8518    3.6799   -0.7033 H       1  UNL1        0.1336
     20 H           1.1895    3.9260   -1.2700 H       1  UNL1        0.1390
     21 N          -0.5343    0.8717   -0.5981 N.am    1  UNL1       -0.2487
     22 C          -1.7713    0.2369   -0.3940 C.ar    1  UNL1        0.3188
     23 C          -1.9455   -1.0200   -0.9731 C.ar    1  UNL1       -0.3045
     24 C          -3.1411   -1.6992   -0.8215 C.ar    1  UNL1       -0.0950
     25 C          -4.1769   -1.1382   -0.0865 C.ar    1  UNL1       -0.1842
     26 C          -4.0014    0.1113    0.4872 C.ar    1  UNL1       -0.0981
     27 C          -2.8098    0.8071    0.3376 C.ar    1  UNL1       -0.3114
     28 H           0.0662    0.4291   -1.2748 H       1  UNL1        0.2716
     29 H          -1.1358   -1.4666   -1.5387 H       1  UNL1        0.1497
     30 H          -3.2603   -2.6743   -1.2763 H       1  UNL1        0.1462
     31 H          -5.1112   -1.6704    0.0355 H       1  UNL1        0.1438
     32 H          -4.8034    0.5613    1.0590 H       1  UNL1        0.1450
     33 H          -2.6823    1.7801    0.7837 H       1  UNL1        0.1566
@<TRIPOS>BOND
     1    12     7    1
     2    29    23    1
     3    30    24    1
     4    28    21    1
     5    20    17    1
     6    13     8    1
     7    23    24   ar
     8    23    22   ar
     9    24    25   ar
    10     7     8   ar
    11     7     6   ar
    12    19    17    1
    13    21    22    1
    14    21     2   am
    15     5     4    1
    16     8     9   ar
    17    17     1    1
    18    17    18    1
    19    22    27   ar
    20     4     1    2
    21     4     6    1
    22     1     2    1
    23    25    31    1
    24    25    26   ar
    25     6    11   ar
    26     2     3    2
    27    27    26   ar
    28    27    33    1
    29    26    32    1
    30     9    14    1
    31     9    10   ar
    32    11    10   ar
    33    11    16    1
    34    10    15    1
