@<TRIPOS>MOLECULE
GS-245-0.out
 23 23 0 0 0
SMALL
MULLIKEN_CHARGES
****
Gaussian 16 # wB97XD def2tzvp, opt=(calcfc, maxcycles=50, maxstep=10), freq=norama
@<TRIPOS>ATOM
      1 C           0.6073    1.0762    0.1702 C.2     1  UNL1        0.0247
      2 C           1.8689    0.2513    0.0858 C.2     1  UNL1        0.3303
      3 O           2.9598    0.6957    0.4249 O.2     1  UNL1       -0.5012
      4 C           0.7367    2.3939    0.2827 C.2     1  UNL1       -0.2874
      5 H          -0.1288    3.0413    0.3434 H       1  UNL1        0.1644
      6 H           1.7188    2.8464    0.3214 H       1  UNL1        0.1586
      7 C          -0.7244    0.4224    0.0957 C.ar    1  UNL1        0.1298
      8 C          -1.6753    0.8600   -0.8244 C.ar    1  UNL1       -0.2508
      9 C          -2.9327    0.2773   -0.8738 C.ar    1  UNL1       -0.1330
     10 C          -3.2571   -0.7545   -0.0053 C.ar    1  UNL1       -0.1479
     11 C          -2.3170   -1.2011    0.9130 C.ar    1  UNL1       -0.1140
     12 C          -1.0600   -0.6196    0.9615 C.ar    1  UNL1       -0.2754
     13 H          -1.4211    1.6580   -1.5111 H       1  UNL1        0.1567
     14 H          -3.6584    0.6275   -1.5968 H       1  UNL1        0.1456
     15 H          -4.2377   -1.2112   -0.0450 H       1  UNL1        0.1476
     16 H          -2.5638   -2.0029    1.5972 H       1  UNL1        0.1472
     17 H          -0.3343   -0.9706    1.6853 H       1  UNL1        0.1551
     18 N           1.7281   -0.9867   -0.4146 N.am    1  UNL1       -0.2872
     19 C           2.8542   -1.8756   -0.5874 C.3     1  UNL1       -0.2605
     20 H           0.8166   -1.2965   -0.7013 H       1  UNL1        0.2771
     21 H           2.4897   -2.8311   -0.9559 H       1  UNL1        0.1472
     22 H           3.5705   -1.4682   -1.3031 H       1  UNL1        0.1357
     23 H           3.3695   -2.0335    0.3608 H       1  UNL1        0.1373
@<TRIPOS>BOND
     1    14     9    1
     2    13     8    1
     3    22    19    1
     4    21    19    1
     5     9     8   ar
     6     9    10   ar
     7     8     7   ar
     8    20    18    1
     9    19    18    1
    10    19    23    1
    11    18     2   am
    12    15    10    1
    13    10    11   ar
    14     2     1    1
    15     2     3    2
    16     7     1    1
    17     7    12   ar
    18     1     4    2
    19     4     6    1
    20     4     5    1
    21    11    12   ar
    22    11    16    1
    23    12    17    1
