@<TRIPOS>MOLECULE
GS-229-0.out
 23 23 0 0 0
SMALL
MULLIKEN_CHARGES
****
Gaussian 16 # wB97XD def2tzvp, opt=(calcfc, maxcycles=50, maxstep=10), freq=norama
@<TRIPOS>ATOM
      1 C          -0.9673   -0.2964    0.0487 C.2     1  UNL1        0.0327
      2 C          -0.8619    1.2010    0.1568 C.2     1  UNL1        0.2801
      3 O          -1.3058    1.8082    1.1204 O.2     1  UNL1       -0.4593
      4 C           0.0415   -1.1600    0.0110 C.2     1  UNL1       -0.2303
      5 H          -0.1940   -2.2129   -0.1001 H       1  UNL1        0.1745
      6 C           1.4754   -0.8311    0.0905 C.ar    1  UNL1        0.1649
      7 C           2.3759   -1.5963   -0.6513 C.ar    1  UNL1       -0.2202
      8 C           3.7327   -1.3184   -0.6203 C.ar    1  UNL1       -0.1377
      9 C           4.2123   -0.2815    0.1675 C.ar    1  UNL1       -0.1408
     10 C           3.3279    0.4692    0.9294 C.ar    1  UNL1       -0.1428
     11 C           1.9703    0.1959    0.8949 C.ar    1  UNL1       -0.2042
     12 H           2.0057   -2.4097   -1.2638 H       1  UNL1        0.1453
     13 H           4.4171   -1.9157   -1.2090 H       1  UNL1        0.1471
     14 H           5.2728   -0.0667    0.1970 H       1  UNL1        0.1485
     15 H           3.6970    1.2667    1.5615 H       1  UNL1        0.1475
     16 H           1.2960    0.7726    1.5153 H       1  UNL1        0.1622
     17 BR         -2.7609   -0.9121    0.0016 Br      1  UNL1       -0.0607
     18 N          -0.2594    1.7912   -0.8819 N.am    1  UNL1       -0.2741
     19 C           0.0259    3.2092   -0.8960 C.3     1  UNL1       -0.2522
     20 H           0.1033    1.2117   -1.6185 H       1  UNL1        0.2843
     21 H           0.4401    3.4705   -1.8660 H       1  UNL1        0.1521
     22 H          -0.8862    3.7821   -0.7313 H       1  UNL1        0.1423
     23 H           0.7460    3.4697   -0.1174 H       1  UNL1        0.1409
@<TRIPOS>BOND
     1    21    19    1
     2    20    18    1
     3    12     7    1
     4    13     8    1
     5    19    18    1
     6    19    22    1
     7    19    23    1
     8    18     2   am
     9     7     8   ar
    10     7     6   ar
    11     8     9   ar
    12     5     4    1
    13    17     1    1
    14     4     1    2
    15     4     6    1
    16     1     2    1
    17     6    11   ar
    18     2     3    2
    19     9    14    1
    20     9    10   ar
    21    11    10   ar
    22    11    16    1
    23    10    15    1
