@<TRIPOS>MOLECULE
GS-219-0.out
 23 23 0 0 0
SMALL
MULLIKEN_CHARGES
****
Gaussian 16 # wB97XD def2tzvp, opt=(calcfc, maxcycles=50, maxstep=10), freq=norama
@<TRIPOS>ATOM
      1 C           1.7399    0.6786   -0.1131 C.2     1  UNL1        0.0591
      2 C           1.9356   -0.7763    0.2165 C.2     1  UNL1        0.2365
      3 O           2.5535   -1.5196   -0.5345 O.2     1  UNL1       -0.4611
      4 C           0.5420    1.2415   -0.2720 C.2     1  UNL1       -0.2451
      5 H           0.5228    2.3089   -0.4761 H       1  UNL1        0.1529
      6 C          -0.7841    0.6010   -0.2022 C.ar    1  UNL1        0.1672
      7 C          -1.8485    1.3111    0.3554 C.ar    1  UNL1       -0.2208
      8 C          -3.1111    0.7472    0.4454 C.ar    1  UNL1       -0.1401
      9 C          -3.3367   -0.5343   -0.0374 C.ar    1  UNL1       -0.1478
     10 C          -2.2926   -1.2417   -0.6169 C.ar    1  UNL1       -0.1454
     11 C          -1.0293   -0.6783   -0.7023 C.ar    1  UNL1       -0.2013
     12 H          -1.6791    2.3143    0.7291 H       1  UNL1        0.1406
     13 H          -3.9215    1.3111    0.8899 H       1  UNL1        0.1441
     14 H          -4.3234   -0.9749    0.0270 H       1  UNL1        0.1458
     15 H          -2.4641   -2.2345   -1.0133 H       1  UNL1        0.1442
     16 H          -0.2302   -1.2324   -1.1789 H       1  UNL1        0.1569
     17 C           3.0225    1.4398   -0.2754 C.3     1  UNL1       -0.3448
     18 H           3.6196    1.0054   -1.0797 H       1  UNL1        0.1387
     19 H           2.8292    2.4860   -0.5082 H       1  UNL1        0.1326
     20 H           3.6238    1.3887    0.6359 H       1  UNL1        0.1383
     21 N           1.4490   -1.1775    1.4028 N.am    1  UNL1       -0.4228
     22 H           1.5201   -2.1458    1.6655 H       1  UNL1        0.2785
     23 H           0.9055   -0.5590    1.9772 H       1  UNL1        0.2939
@<TRIPOS>BOND
     1    16    11    1
     2    18    17    1
     3    15    10    1
     4    11    10   ar
     5    11     6   ar
     6    10     9   ar
     7     3     2    2
     8    19    17    1
     9     5     4    1
    10    17     1    1
    11    17    20    1
    12     4     6    1
    13     4     1    2
    14     6     7   ar
    15     1     2    1
    16     9    14    1
    17     9     8   ar
    18     2    21   am
    19     7     8   ar
    20     7    12    1
    21     8    13    1
    22    21    22    1
    23    21    23    1
