@<TRIPOS>MOLECULE
GS-285-0.out
 26 26 0 0 0
SMALL
MULLIKEN_CHARGES
****
Gaussian 16 # wB97XD def2tzvp, opt=(calcfc, maxcycles=50, maxstep=10), freq=norama
@<TRIPOS>ATOM
      1 C           0.5617    0.7249    0.1059 C.2     1  UNL1       -0.0057
      2 C           1.5823   -0.3797    0.2024 C.2     1  UNL1        0.2866
      3 O           2.4263   -0.4284    1.0907 O.2     1  UNL1       -0.4880
      4 C           0.9399    2.0031    0.0682 C.2     1  UNL1       -0.1076
      5 H           0.1541    2.7526    0.0361 H       1  UNL1        0.1512
      6 C           2.3311    2.5412    0.0496 C.3     1  UNL1       -0.3511
      7 H           2.4504    3.2240   -0.7951 H       1  UNL1        0.1353
      8 H           2.5213    3.1260    0.9534 H       1  UNL1        0.1393
      9 H           3.0854    1.7604   -0.0161 H       1  UNL1        0.1317
     10 C          -0.8658    0.3192    0.0681 C.ar    1  UNL1        0.1012
     11 C          -1.7920    0.9951   -0.7259 C.ar    1  UNL1       -0.2375
     12 C          -3.1289    0.6273   -0.7262 C.ar    1  UNL1       -0.1422
     13 C          -3.5628   -0.4309    0.0590 C.ar    1  UNL1       -0.1400
     14 C          -2.6483   -1.1219    0.8420 C.ar    1  UNL1       -0.1566
     15 C          -1.3131   -0.7526    0.8428 C.ar    1  UNL1       -0.2060
     16 H          -1.4597    1.8065   -1.3615 H       1  UNL1        0.1560
     17 H          -3.8317    1.1630   -1.3519 H       1  UNL1        0.1439
     18 H          -4.6057   -0.7212    0.0549 H       1  UNL1        0.1458
     19 H          -2.9758   -1.9512    1.4562 H       1  UNL1        0.1441
     20 H          -0.6099   -1.2977    1.4619 H       1  UNL1        0.1524
     21 N           1.4978   -1.3163   -0.7568 N.am    1  UNL1       -0.2891
     22 C           2.3674   -2.4707   -0.7879 C.3     1  UNL1       -0.2587
     23 H           0.7763   -1.2320   -1.4507 H       1  UNL1        0.2759
     24 H           2.2575   -3.0658    0.1204 H       1  UNL1        0.1362
     25 H           2.1023   -3.0830   -1.6462 H       1  UNL1        0.1473
     26 H           3.4121   -2.1696   -0.8766 H       1  UNL1        0.1354
@<TRIPOS>BOND
     1    25    22    1
     2    23    21    1
     3    16    11    1
     4    17    12    1
     5    26    22    1
     6     7     6    1
     7    22    21    1
     8    22    24    1
     9    21     2   am
    10    12    11   ar
    11    12    13   ar
    12    11    10   ar
    13     9     6    1
    14     5     4    1
    15     6     4    1
    16     6     8    1
    17    18    13    1
    18    13    14   ar
    19    10     1    1
    20    10    15   ar
    21     4     1    2
    22     1     2    1
    23     2     3    2
    24    14    15   ar
    25    14    19    1
    26    15    20    1
