@<TRIPOS>MOLECULE
GS-288-0.out
 31 32 0 0 0
SMALL
MULLIKEN_CHARGES
****
Gaussian 16 # wB97XD def2tzvp, opt=(calcfc, maxcycles=50, maxstep=10), freq=norama
@<TRIPOS>ATOM
      1 C          -0.6725    1.2958    0.0344 C.2     1  UNL1        0.0088
      2 C           0.6627    1.1265    0.7047 C.2     1  UNL1        0.2229
      3 O           0.9797    1.8174    1.6518 O.2     1  UNL1       -0.3843
      4 C          -0.9986    2.4421   -0.5637 C.2     1  UNL1       -0.0646
      5 H          -1.9895    2.5113   -1.0036 H       1  UNL1        0.1495
      6 C          -0.1460    3.6556   -0.7248 C.3     1  UNL1       -0.3498
      7 H          -0.0893    3.9297   -1.7808 H       1  UNL1        0.1385
      8 H          -0.5976    4.5043   -0.2049 H       1  UNL1        0.1419
      9 H           0.8644    3.5208   -0.3439 H       1  UNL1        0.1335
     10 C          -1.5842    0.1270    0.0897 C.ar    1  UNL1        0.1160
     11 C          -2.4318   -0.1864   -0.9731 C.ar    1  UNL1       -0.2523
     12 C          -3.2896   -1.2718   -0.8985 C.ar    1  UNL1       -0.1388
     13 C          -3.3074   -2.0730    0.2350 C.ar    1  UNL1       -0.1359
     14 C          -2.4591   -1.7805    1.2927 C.ar    1  UNL1       -0.1601
     15 C          -1.6042   -0.6917    1.2192 C.ar    1  UNL1       -0.2117
     16 H          -2.4048    0.4136   -1.8742 H       1  UNL1        0.1576
     17 H          -3.9383   -1.5002   -1.7347 H       1  UNL1        0.1440
     18 H          -3.9733   -2.9247    0.2897 H       1  UNL1        0.1459
     19 H          -2.4628   -2.4003    2.1803 H       1  UNL1        0.1440
     20 H          -0.9534   -0.4708    2.0574 H       1  UNL1        0.1560
     21 C           1.5803    0.0754    0.1772 C.ar    1  UNL1        0.0741
     22 C           2.6533   -0.3443    0.9610 C.ar    1  UNL1       -0.2058
     23 C           3.5300   -1.3034    0.4861 C.ar    1  UNL1       -0.1310
     24 C           3.3478   -1.8424   -0.7817 C.ar    1  UNL1       -0.1188
     25 C           2.2864   -1.4234   -1.5711 C.ar    1  UNL1       -0.1605
     26 C           1.4007   -0.4720   -1.0910 C.ar    1  UNL1       -0.1845
     27 H           2.7862    0.0864    1.9447 H       1  UNL1        0.1461
     28 H           4.3569   -1.6329    1.1018 H       1  UNL1        0.1489
     29 H           4.0355   -2.5910   -1.1543 H       1  UNL1        0.1512
     30 H           2.1472   -1.8396   -2.5603 H       1  UNL1        0.1479
     31 H           0.5731   -0.1474   -1.7085 H       1  UNL1        0.1714
@<TRIPOS>BOND
     1    30    25    1
     2    16    11    1
     3     7     6    1
     4    17    12    1
     5    31    26    1
     6    25    26   ar
     7    25    24   ar
     8    29    24    1
     9    26    21   ar
    10     5     4    1
    11    11    12   ar
    12    11    10   ar
    13    12    13   ar
    14    24    23   ar
    15     6     4    1
    16     6     9    1
    17     6     8    1
    18     4     1    2
    19     1    10    1
    20     1     2    1
    21    10    15   ar
    22    21     2    1
    23    21    22   ar
    24    13    18    1
    25    13    14   ar
    26    23    22   ar
    27    23    28    1
    28     2     3    2
    29    22    27    1
    30    15    14   ar
    31    15    20    1
    32    14    19    1
