@<TRIPOS>MOLECULE
GS-279-0.out
 20 20 0 0 0
SMALL
MULLIKEN_CHARGES
****
Gaussian 16 # wB97XD def2tzvp, opt=(calcfc, maxcycles=50, maxstep=10), freq=norama
@<TRIPOS>ATOM
      1 C          -2.5584    0.2834    0.0000 C.2     1  UNL1       -0.0203
      2 C          -1.1197    0.7457    0.0000 C.2     1  UNL1        0.4244
      3 O          -0.8776    1.9391    0.0000 O.2     1  UNL1       -0.4694
      4 C          -3.5515    1.1551    0.0000 C.2     1  UNL1       -0.2693
      5 H          -4.5863    0.8447    0.0000 H       1  UNL1        0.1811
      6 H          -3.3174    2.2105    0.0000 H       1  UNL1        0.1773
      7 CL         -2.8880   -1.4301   -0.0000 Cl      1  UNL1       -0.0990
      8 N          -0.1912   -0.2352   -0.0000 N.am    1  UNL1       -0.2530
      9 C           1.2109   -0.1258   -0.0000 C.ar    1  UNL1        0.3042
     10 C           1.9320   -1.3206    0.0000 C.ar    1  UNL1       -0.3007
     11 C           3.3144   -1.3031    0.0000 C.ar    1  UNL1       -0.0961
     12 C           3.9997   -0.0954    0.0000 C.ar    1  UNL1       -0.1843
     13 C           3.2817    1.0894   -0.0000 C.ar    1  UNL1       -0.1070
     14 C           1.8933    1.0884   -0.0000 C.ar    1  UNL1       -0.2873
     15 H          -0.5466   -1.1783   -0.0000 H       1  UNL1        0.2462
     16 H           1.4038   -2.2668    0.0000 H       1  UNL1        0.1477
     17 H           3.8576   -2.2394    0.0000 H       1  UNL1        0.1478
     18 H           5.0817   -0.0806    0.0000 H       1  UNL1        0.1449
     19 H           3.8036    2.0381   -0.0000 H       1  UNL1        0.1459
     20 H           1.3447    2.0155   -0.0000 H       1  UNL1        0.1669
@<TRIPOS>BOND
     1    20    14    1
     2    19    13    1
     3    14    13   ar
     4    14     9   ar
     5    13    12   ar
     6     7     1    1
     7    15     8    1
     8     8     9    1
     9     8     2   am
    10     9    10   ar
    11    18    12    1
    12    12    11   ar
    13     1     2    1
    14     1     4    2
    15     2     3    2
    16     5     4    1
    17     4     6    1
    18    10    11   ar
    19    10    16    1
    20    11    17    1
