@<TRIPOS>MOLECULE
GS-240-0.out
 28 29 0 0 0
SMALL
MULLIKEN_CHARGES
****
Gaussian 16 # wB97XD def2tzvp, opt=(calcfc, maxcycles=50, maxstep=10), freq=norama
@<TRIPOS>ATOM
      1 C           1.7833   -0.8150   -0.0586 C.2     1  UNL1        0.1241
      2 C           1.5404    0.5060    0.6243 C.2     1  UNL1        0.1992
      3 O           2.2172    0.8192    1.5784 O.2     1  UNL1       -0.3568
      4 C           0.8840   -1.7590   -0.3237 C.2     1  UNL1       -0.2690
      5 H           1.2269   -2.6494   -0.8397 H       1  UNL1        0.1715
      6 C          -0.5476   -1.7097    0.0054 C.ar    1  UNL1        0.2142
      7 C          -1.4657   -2.1942   -0.9268 C.ar    1  UNL1       -0.2160
      8 C          -2.8257   -2.1267   -0.6759 C.ar    1  UNL1       -0.1345
      9 C          -3.2871   -1.5931    0.5201 C.ar    1  UNL1       -0.1368
     10 C          -2.3807   -1.1395    1.4673 C.ar    1  UNL1       -0.1472
     11 C          -1.0198   -1.2017    1.2147 C.ar    1  UNL1       -0.2163
     12 H          -1.1078   -2.6099   -1.8611 H       1  UNL1        0.1459
     13 H          -3.5275   -2.4935   -1.4139 H       1  UNL1        0.1472
     14 H          -4.3501   -1.5434    0.7182 H       1  UNL1        0.1488
     15 H          -2.7330   -0.7417    2.4103 H       1  UNL1        0.1475
     16 H          -0.3207   -0.8690    1.9714 H       1  UNL1        0.1710
     17 CL          3.4576   -1.0748   -0.4599 Cl      1  UNL1       -0.0986
     18 C           0.4850    1.4034    0.0822 C.ar    1  UNL1        0.1299
     19 C           0.0229    1.2905   -1.2263 C.ar    1  UNL1       -0.2042
     20 C          -0.9451    2.1621   -1.6975 C.ar    1  UNL1       -0.1424
     21 C          -1.4642    3.1401   -0.8616 C.ar    1  UNL1       -0.1203
     22 C          -1.0054    3.2575    0.4450 C.ar    1  UNL1       -0.1264
     23 C          -0.0284    2.3981    0.9126 C.ar    1  UNL1       -0.2051
     24 H           0.4213    0.5254   -1.8792 H       1  UNL1        0.1711
     25 H          -1.2970    2.0755   -2.7171 H       1  UNL1        0.1501
     26 H          -2.2283    3.8138   -1.2281 H       1  UNL1        0.1525
     27 H          -1.4127    4.0192    1.0970 H       1  UNL1        0.1502
     28 H           0.3367    2.4780    1.9280 H       1  UNL1        0.1504
@<TRIPOS>BOND
     1    25    20    1
     2    24    19    1
     3    12     7    1
     4    20    19   ar
     5    20    21   ar
     6    13     8    1
     7    26    21    1
     8    19    18   ar
     9     7     8   ar
    10     7     6   ar
    11    21    22   ar
    12     5     4    1
    13     8     9   ar
    14    17     1    1
    15     4     1    2
    16     4     6    1
    17     1     2    1
    18     6    11   ar
    19    18     2    1
    20    18    23   ar
    21    22    23   ar
    22    22    27    1
    23     9    14    1
    24     9    10   ar
    25     2     3    2
    26    23    28    1
    27    11    10   ar
    28    11    16    1
    29    10    15    1
