@<TRIPOS>MOLECULE
GS-270-1.out
 16 15 0 0 0
SMALL
MULLIKEN_CHARGES
****
Gaussian 16 # wB97XD def2tzvp, opt=(calcfc, maxcycles=70, maxstep=1), freq=noraman
@<TRIPOS>ATOM
      1 C          -0.4320    0.7132    0.4498 C.2     1  UNL1       -0.0799
      2 C           0.9045    0.6785   -0.2484 C.2     1  UNL1        0.3351
      3 O           1.1262    1.5029   -1.1270 O.2     1  UNL1       -0.4822
      4 C          -0.7360    1.5246    1.4425 C.2     1  UNL1       -0.2952
      5 H          -1.7266    1.5688    1.8732 H       1  UNL1        0.1748
      6 H           0.0288    2.1736    1.8522 H       1  UNL1        0.1740
      7 BR         -1.7204   -0.4493   -0.3279 Br      1  UNL1       -0.0597
      8 N           1.7747   -0.2713    0.1313 N.am    1  UNL1       -0.1052
      9 C           3.0529   -0.3917   -0.5426 C.3     1  UNL1       -0.2764
     10 C           1.5301   -1.2495    1.1731 C.3     1  UNL1       -0.2890
     11 H           3.1114    0.3399   -1.3417 H       1  UNL1        0.1516
     12 H           3.8663   -0.2219    0.1658 H       1  UNL1        0.1458
     13 H           3.1565   -1.3959   -0.9586 H       1  UNL1        0.1422
     14 H           0.6079   -1.0335    1.7028 H       1  UNL1        0.1682
     15 H           1.4683   -2.2516    0.7428 H       1  UNL1        0.1497
     16 H           2.3528   -1.2287    1.8901 H       1  UNL1        0.1462
@<TRIPOS>BOND
     1    11     9    1
     2     3     2    2
     3    13     9    1
     4     9     8    1
     5     9    12    1
     6     7     1    1
     7     2     8   am
     8     2     1    1
     9     8    10    1
    10     1     4    2
    11    15    10    1
    12    10    14    1
    13    10    16    1
    14     4     6    1
    15     4     5    1
