@<TRIPOS>MOLECULE
GS-283-0.out
 23 23 0 0 0
SMALL
MULLIKEN_CHARGES
****
Gaussian 16 # wB97XD def2tzvp, opt=(calcfc, maxcycles=50, maxstep=10), freq=norama
@<TRIPOS>ATOM
      1 C          -0.8800   -0.2858    0.0704 C.2     1  UNL1       -0.0024
      2 C          -1.6602    0.9821   -0.1565 C.2     1  UNL1        0.2617
      3 O          -2.6088    1.3119    0.5425 O.2     1  UNL1       -0.4672
      4 C          -1.5022   -1.4503    0.2646 C.2     1  UNL1       -0.1195
      5 H          -0.8721   -2.3165    0.4470 H       1  UNL1        0.1551
      6 C          -2.9667   -1.7314    0.2455 C.3     1  UNL1       -0.3417
      7 H          -3.1672   -2.5796   -0.4131 H       1  UNL1        0.1341
      8 H          -3.3048   -2.0240    1.2433 H       1  UNL1        0.1394
      9 H          -3.5583   -0.8787   -0.0773 H       1  UNL1        0.1320
     10 C           0.6025   -0.1878    0.0623 C.ar    1  UNL1        0.1116
     11 C           1.3865   -1.1575   -0.5619 C.ar    1  UNL1       -0.2440
     12 C           2.7707   -1.0777   -0.5335 C.ar    1  UNL1       -0.1381
     13 C           3.3959   -0.0205    0.1109 C.ar    1  UNL1       -0.1449
     14 C           2.6267    0.9590    0.7242 C.ar    1  UNL1       -0.1436
     15 C           1.2440    0.8774    0.6966 C.ar    1  UNL1       -0.2114
     16 H           0.9066   -1.9743   -1.0866 H       1  UNL1        0.1580
     17 H           3.3616   -1.8395   -1.0264 H       1  UNL1        0.1443
     18 H           4.4763    0.0446    0.1292 H       1  UNL1        0.1460
     19 H           3.1052    1.7891    1.2284 H       1  UNL1        0.1447
     20 H           0.6547    1.6462    1.1827 H       1  UNL1        0.1526
     21 N          -1.2417    1.7310   -1.1952 N.am    1  UNL1       -0.4358
     22 H          -1.6955    2.6074   -1.3860 H       1  UNL1        0.2772
     23 H          -0.4473    1.4683   -1.7501 H       1  UNL1        0.2917
@<TRIPOS>BOND
     1    23    21    1
     2    22    21    1
     3    21     2   am
     4    16    11    1
     5    17    12    1
     6    11    12   ar
     7    11    10   ar
     8    12    13   ar
     9     7     6    1
    10     2     1    1
    11     2     3    2
    12     9     6    1
    13    10     1    1
    14    10    15   ar
    15     1     4    2
    16    13    18    1
    17    13    14   ar
    18     6     4    1
    19     6     8    1
    20     4     5    1
    21    15    14   ar
    22    15    20    1
    23    14    19    1
