@<TRIPOS>MOLECULE
GS-246-0.out
 26 26 0 0 0
SMALL
MULLIKEN_CHARGES
****
Gaussian 16 # wB97XD def2tzvp, opt=(calcfc, maxcycles=50, maxstep=10), freq=norama
@<TRIPOS>ATOM
      1 C          -0.3864    1.1843   -0.1661 C.2     1  UNL1       -0.0107
      2 C          -1.6282    0.3798   -0.4708 C.2     1  UNL1        0.2327
      3 O          -2.2202    0.5474   -1.5335 O.2     1  UNL1       -0.4917
      4 C          -0.4991    2.4977   -0.0022 C.2     1  UNL1       -0.2891
      5 H           0.3665    3.1282    0.1574 H       1  UNL1        0.1533
      6 H          -1.4666    2.9825   -0.0306 H       1  UNL1        0.1582
      7 C           0.9014    0.4514   -0.1386 C.ar    1  UNL1        0.1340
      8 C           1.9683    0.8901    0.6455 C.ar    1  UNL1       -0.2155
      9 C           3.1725    0.2055    0.6470 C.ar    1  UNL1       -0.1502
     10 C           3.3294   -0.9352   -0.1285 C.ar    1  UNL1       -0.1277
     11 C           2.2711   -1.3883   -0.9021 C.ar    1  UNL1       -0.1694
     12 C           1.0662   -0.7032   -0.9034 C.ar    1  UNL1       -0.2007
     13 H           1.8489    1.7627    1.2753 H       1  UNL1        0.1535
     14 H           3.9884    0.5579    1.2653 H       1  UNL1        0.1446
     15 H           4.2692   -1.4724   -0.1228 H       1  UNL1        0.1468
     16 H           2.3821   -2.2791   -1.5073 H       1  UNL1        0.1450
     17 H           0.2489   -1.0652   -1.5159 H       1  UNL1        0.1540
     18 N          -2.0151   -0.5238    0.4503 N.am    1  UNL1       -0.0849
     19 C          -3.1182   -1.4214    0.1734 C.3     1  UNL1       -0.2820
     20 C          -1.3885   -0.6886    1.7469 C.3     1  UNL1       -0.2955
     21 H          -3.4035   -1.3337   -0.8701 H       1  UNL1        0.1485
     22 H          -2.8124   -2.4483    0.3831 H       1  UNL1        0.1399
     23 H          -3.9777   -1.1795    0.8032 H       1  UNL1        0.1443
     24 H          -0.7603    0.1637    1.9874 H       1  UNL1        0.1647
     25 H          -2.1648   -0.7647    2.5100 H       1  UNL1        0.1507
     26 H          -0.7824   -1.5978    1.7744 H       1  UNL1        0.1470
@<TRIPOS>BOND
     1     3     2    2
     2    17    12    1
     3    16    11    1
     4    12    11   ar
     5    12     7   ar
     6    11    10   ar
     7    21    19    1
     8     2     1    1
     9     2    18   am
    10     1     7    1
    11     1     4    2
    12     7     8   ar
    13    10    15    1
    14    10     9   ar
    15     6     4    1
    16     4     5    1
    17    19    22    1
    18    19    18    1
    19    19    23    1
    20    18    20    1
    21     8     9   ar
    22     8    13    1
    23     9    14    1
    24    20    26    1
    25    20    24    1
    26    20    25    1
