@<TRIPOS>MOLECULE
GS-254-1.out
 16 15 0 0 0
SMALL
MULLIKEN_CHARGES
****
Gaussian 16 # wB97XD def2tzvp, opt=(calcfc, maxcycles=70, maxstep=1), freq=noraman
@<TRIPOS>ATOM
      1 C          -1.4239    0.5911   -0.1466 C.2     1  UNL1       -0.2447
      2 C          -0.2946   -0.3830   -0.0358 C.2     1  UNL1        0.3498
      3 O          -0.5101   -1.5933   -0.0005 O.2     1  UNL1       -0.5204
      4 C          -2.6718    0.2139    0.0884 C.2     1  UNL1       -0.2615
      5 H          -3.4952    0.9099   -0.0059 H       1  UNL1        0.1622
      6 H          -2.8979   -0.8042    0.3815 H       1  UNL1        0.1549
      7 H          -1.2140    1.6101   -0.4424 H       1  UNL1        0.1718
      8 N           0.9547    0.1302    0.0052 N.am    1  UNL1       -0.0949
      9 C           2.1008   -0.7573   -0.0170 C.3     1  UNL1       -0.2932
     10 C           1.2516    1.5522    0.0763 C.3     1  UNL1       -0.3233
     11 H           1.7722   -1.7648   -0.2505 H       1  UNL1        0.1465
     12 H           2.8085   -0.4207   -0.7767 H       1  UNL1        0.1452
     13 H           2.6069   -0.7616    0.9517 H       1  UNL1        0.1423
     14 H           0.5565    2.0738    0.7300 H       1  UNL1        0.1542
     15 H           2.2476    1.6703    0.4991 H       1  UNL1        0.1568
     16 H           1.2415    2.0207   -0.9110 H       1  UNL1        0.1541
@<TRIPOS>BOND
     1    16    10    1
     2    12     9    1
     3     7     1    1
     4    11     9    1
     5     1     2    1
     6     1     4    2
     7     2     3    2
     8     2     8   am
     9     9     8    1
    10     9    13    1
    11     5     4    1
    12     8    10    1
    13    10    15    1
    14    10    14    1
    15     4     6    1
