@<TRIPOS>MOLECULE
GS-216-0.out
 28 29 0 0 0
SMALL
MULLIKEN_CHARGES
****
Gaussian 16 # wB97XD def2tzvp, opt=(calcfc, maxcycles=50, maxstep=10), freq=norama
@<TRIPOS>ATOM
      1 C           0.2442    2.4413   -0.5393 C.2     1  UNL1       -0.1898
      2 C           1.3519    1.7212    0.1458 C.2     1  UNL1        0.2914
      3 O           2.0925    2.3459    0.8829 O.2     1  UNL1       -0.3972
      4 C          -1.0309    2.0672   -0.6551 C.2     1  UNL1       -0.2204
      5 H          -1.6912    2.7320   -1.2043 H       1  UNL1        0.1631
      6 C          -1.6650    0.8520   -0.1219 C.ar    1  UNL1        0.2229
      7 C          -2.6117    0.1846   -0.8993 C.ar    1  UNL1       -0.2161
      8 C          -3.1914   -0.9909   -0.4513 C.ar    1  UNL1       -0.1382
      9 C          -2.8518   -1.5036    0.7934 C.ar    1  UNL1       -0.1375
     10 C          -1.9387   -0.8279    1.5905 C.ar    1  UNL1       -0.1557
     11 C          -1.3527    0.3430    1.1379 C.ar    1  UNL1       -0.2068
     12 H          -2.8791    0.5827   -1.8711 H       1  UNL1        0.1440
     13 H          -3.9123   -1.5066   -1.0728 H       1  UNL1        0.1457
     14 H          -3.3075   -2.4199    1.1464 H       1  UNL1        0.1474
     15 H          -1.6851   -1.2108    2.5708 H       1  UNL1        0.1457
     16 H          -0.6570    0.8738    1.7755 H       1  UNL1        0.1703
     17 H           0.5373    3.4115   -0.9255 H       1  UNL1        0.1621
     18 C           1.5813    0.2686   -0.1104 C.ar    1  UNL1        0.1161
     19 C           1.1282   -0.3522   -1.2711 C.ar    1  UNL1       -0.1967
     20 C           1.3711   -1.7001   -1.4803 C.ar    1  UNL1       -0.1500
     21 C           2.0562   -2.4383   -0.5258 C.ar    1  UNL1       -0.1223
     22 C           2.5130   -1.8236    0.6334 C.ar    1  UNL1       -0.1324
     23 C           2.2848   -0.4738    0.8352 C.ar    1  UNL1       -0.2031
     24 H           0.5870    0.2193   -2.0134 H       1  UNL1        0.1661
     25 H           1.0218   -2.1758   -2.3875 H       1  UNL1        0.1472
     26 H           2.2355   -3.4940   -0.6849 H       1  UNL1        0.1501
     27 H           3.0456   -2.3994    1.3793 H       1  UNL1        0.1477
     28 H           2.6347    0.0157    1.7346 H       1  UNL1        0.1464
@<TRIPOS>BOND
     1    25    20    1
     2    24    19    1
     3    12     7    1
     4    20    19   ar
     5    20    21   ar
     6    19    18   ar
     7     5     4    1
     8    13     8    1
     9    17     1    1
    10     7     8   ar
    11     7     6   ar
    12    26    21    1
    13     4     1    2
    14     4     6    1
    15     1     2    1
    16    21    22   ar
    17     8     9   ar
    18     6    11   ar
    19    18     2    1
    20    18    23   ar
    21     2     3    2
    22    22    23   ar
    23    22    27    1
    24     9    14    1
    25     9    10   ar
    26    23    28    1
    27    11    10   ar
    28    11    16    1
    29    10    15    1
