@<TRIPOS>MOLECULE
GS-272-0.out
 18 18 0 0 0
SMALL
MULLIKEN_CHARGES
****
Gaussian 16 # wB97XD def2tzvp, opt=(calcfc, maxcycles=50, maxstep=10), freq=norama
@<TRIPOS>ATOM
      1 C           1.4298    0.6665    0.4581 C.2     1  UNL1       -0.0365
      2 C           0.1422    1.2961   -0.0053 C.2     1  UNL1        0.3072
      3 O           0.1555    2.4440   -0.3886 O.2     1  UNL1       -0.3608
      4 C           2.1750    1.1866    1.4151 C.2     1  UNL1       -0.2787
      5 H           3.1025    0.7357    1.7396 H       1  UNL1        0.1796
      6 H           1.8469    2.0943    1.9070 H       1  UNL1        0.1778
      7 BR          1.9470   -0.9077   -0.4715 Br      1  UNL1       -0.0574
      8 C          -1.1090    0.4958    0.0477 C.ar    1  UNL1        0.0904
      9 C          -2.1817    0.8726   -0.7579 C.ar    1  UNL1       -0.2001
     10 C          -3.3726    0.1713   -0.6999 C.ar    1  UNL1       -0.1270
     11 C          -3.5049   -0.8989    0.1763 C.ar    1  UNL1       -0.1233
     12 C          -2.4441   -1.2705    0.9900 C.ar    1  UNL1       -0.1481
     13 C          -1.2447   -0.5811    0.9205 C.ar    1  UNL1       -0.2075
     14 H          -2.0681    1.7129   -1.4302 H       1  UNL1        0.1516
     15 H          -4.2004    0.4580   -1.3352 H       1  UNL1        0.1514
     16 H          -4.4388   -1.4443    0.2248 H       1  UNL1        0.1533
     17 H          -2.5504   -2.0990    1.6779 H       1  UNL1        0.1517
     18 H          -0.4202   -0.8723    1.5590 H       1  UNL1        0.1765
@<TRIPOS>BOND
     1    14     9    1
     2    15    10    1
     3     9    10   ar
     4     9     8   ar
     5    10    11   ar
     6     7     1    1
     7     3     2    2
     8     2     8    1
     9     2     1    1
    10     8    13   ar
    11    11    16    1
    12    11    12   ar
    13     1     4    2
    14    13    12   ar
    15    13    18    1
    16    12    17    1
    17     4     5    1
    18     4     6    1
