@<TRIPOS>MOLECULE
GS-263-0.out
 23 23 0 0 0
SMALL
MULLIKEN_CHARGES
****
Gaussian 16 # wB97XD def2tzvp, opt=(calcfc, maxcycles=50, maxstep=10), freq=norama
@<TRIPOS>ATOM
      1 C          -2.8003    0.2672   -0.0622 C.2     1  UNL1       -0.0538
      2 C          -1.4413   -0.3750   -0.0359 C.2     1  UNL1        0.4161
      3 O          -1.3226   -1.5895   -0.0576 O.2     1  UNL1       -0.4750
      4 C          -3.0240    1.3757   -0.7595 C.2     1  UNL1       -0.3189
      5 H          -4.0158    1.8082   -0.8115 H       1  UNL1        0.1523
      6 H          -2.2452    1.8761   -1.3221 H       1  UNL1        0.1619
      7 C          -3.8712   -0.4828    0.6692 C.3     1  UNL1       -0.3453
      8 H          -3.9784   -1.4879    0.2588 H       1  UNL1        0.1380
      9 H          -3.6153   -0.5934    1.7252 H       1  UNL1        0.1386
     10 H          -4.8263    0.0341    0.5918 H       1  UNL1        0.1328
     11 N          -0.3961    0.4935    0.0211 N.am    1  UNL1       -0.2826
     12 C           0.9825    0.2239    0.0188 C.ar    1  UNL1        0.3096
     13 C           1.8370    1.2869    0.3155 C.ar    1  UNL1       -0.2999
     14 C           3.2079    1.1053    0.3166 C.ar    1  UNL1       -0.0979
     15 C           3.7507   -0.1390    0.0244 C.ar    1  UNL1       -0.1876
     16 C           2.9013   -1.1929   -0.2718 C.ar    1  UNL1       -0.1060
     17 C           1.5233   -1.0251   -0.2794 C.ar    1  UNL1       -0.2917
     18 H          -0.6432    1.4603    0.1516 H       1  UNL1        0.2669
     19 H           1.4211    2.2608    0.5459 H       1  UNL1        0.1459
     20 H           3.8544    1.9420    0.5488 H       1  UNL1        0.1465
     21 H           4.8232   -0.2828    0.0270 H       1  UNL1        0.1437
     22 H           3.3106   -2.1681   -0.5048 H       1  UNL1        0.1449
     23 H           0.8726   -1.8522   -0.5108 H       1  UNL1        0.1614
@<TRIPOS>BOND
     1     6     4    1
     2     5     4    1
     3     4     1    2
     4    23    17    1
     5    22    16    1
     6    17    16   ar
     7    17    12   ar
     8    16    15   ar
     9     1     2    1
    10     1     7    1
    11     3     2    2
    12     2    11   am
    13    12    11    1
    14    12    13   ar
    15    11    18    1
    16    15    21    1
    17    15    14   ar
    18     8     7    1
    19    13    14   ar
    20    13    19    1
    21    14    20    1
    22    10     7    1
    23     7     9    1
