@<TRIPOS>MOLECULE
GS-241-0.out
 18 18 0 0 0
SMALL
MULLIKEN_CHARGES
****
Gaussian 16 # wB97XD def2tzvp, opt=(calcfc, maxcycles=50, maxstep=10), freq=norama
@<TRIPOS>ATOM
      1 C           1.3132    0.3496    0.1349 C.2     1  UNL1        0.0012
      2 C           2.2004   -0.7179   -0.4120 C.2     1  UNL1        0.1483
      3 O           3.4040   -0.7195   -0.3254 O.2     1  UNL1       -0.3684
      4 C           1.8710    1.4486    0.6410 C.2     1  UNL1       -0.2607
      5 H           1.2755    2.2528    1.0537 H       1  UNL1        0.1737
      6 H           2.9481    1.5579    0.6526 H       1  UNL1        0.1638
      7 C          -0.1499    0.1359    0.0546 C.ar    1  UNL1        0.2064
      8 C          -1.0020    1.1713   -0.3278 C.ar    1  UNL1       -0.2644
      9 C          -2.3727    0.9756   -0.3817 C.ar    1  UNL1       -0.1280
     10 C          -2.9136   -0.2618   -0.0614 C.ar    1  UNL1       -0.1513
     11 C          -2.0752   -1.3015    0.3132 C.ar    1  UNL1       -0.1346
     12 C          -0.7037   -1.1054    0.3683 C.ar    1  UNL1       -0.2670
     13 H          -0.5842    2.1334   -0.5980 H       1  UNL1        0.1578
     14 H          -3.0196    1.7898   -0.6827 H       1  UNL1        0.1462
     15 H          -3.9841   -0.4158   -0.1068 H       1  UNL1        0.1472
     16 H          -2.4892   -2.2687    0.5683 H       1  UNL1        0.1467
     17 H          -0.0640   -1.9223    0.6806 H       1  UNL1        0.1654
     18 H           1.6805   -1.5380   -0.9392 H       1  UNL1        0.1177
@<TRIPOS>BOND
     1    18     2    1
     2    14     9    1
     3    13     8    1
     4     2     3    2
     5     2     1    1
     6     9     8   ar
     7     9    10   ar
     8     8     7   ar
     9    15    10    1
    10    10    11   ar
    11     7     1    1
    12     7    12   ar
    13     1     4    2
    14    11    12   ar
    15    11    16    1
    16    12    17    1
    17     4     6    1
    18     4     5    1
