@<TRIPOS>MOLECULE
GS-23-3.out
 43 45 0 0 0
SMALL
MULLIKEN_CHARGES
****
Gaussian 16 # wB97XD def2tzvp, opt=(maxcycles=70, maxstep=5), freq=noraman, scrf=(
@<TRIPOS>ATOM
      1 C          -0.7472   -1.5598    0.2722 C.2     1  UNL1        0.0370
      2 C           0.7473   -1.6445    0.4380 C.2     1  UNL1        0.2511
      3 O           1.2514   -2.2853    1.3451 O.2     1  UNL1       -0.4612
      4 C          -1.3720   -0.3756    0.1750 C.2     1  UNL1        0.1894
      5 C          -2.8381   -0.2650   -0.0508 C.ar    1  UNL1        0.0809
      6 C          -3.6173    0.5203    0.7976 C.ar    1  UNL1       -0.2139
      7 C          -4.9821    0.6416    0.5926 C.ar    1  UNL1       -0.1552
      8 C          -5.5860   -0.0041   -0.4780 C.ar    1  UNL1       -0.1335
      9 C          -4.8168   -0.7726   -1.3391 C.ar    1  UNL1       -0.1225
     10 C          -3.4526   -0.9034   -1.1252 C.ar    1  UNL1       -0.2751
     11 H          -3.1485    1.0361    1.6271 H       1  UNL1        0.1549
     12 H          -5.5756    1.2455    1.2674 H       1  UNL1        0.1431
     13 H          -6.6511    0.0966   -0.6431 H       1  UNL1        0.1460
     14 H          -5.2782   -1.2705   -2.1826 H       1  UNL1        0.1438
     15 H          -2.8541   -1.4991   -1.8031 H       1  UNL1        0.1564
     16 C          -0.6549    0.9251    0.3030 C.ar    1  UNL1        0.0014
     17 C          -0.7863    1.8929   -0.6921 C.ar    1  UNL1       -0.1841
     18 C          -0.0956    3.0913   -0.6071 C.ar    1  UNL1       -0.1610
     19 C           0.7210    3.3491    0.4854 C.ar    1  UNL1       -0.1279
     20 C           0.8390    2.4029    1.4927 C.ar    1  UNL1       -0.1380
     21 C           0.1543    1.2005    1.4028 C.ar    1  UNL1       -0.2093
     22 H          -1.4245    1.6971   -1.5455 H       1  UNL1        0.1538
     23 H          -0.1956    3.8260   -1.3959 H       1  UNL1        0.1421
     24 H           1.2587    4.2861    0.5534 H       1  UNL1        0.1453
     25 H           1.4649    2.6006    2.3536 H       1  UNL1        0.1426
     26 H           0.2478    0.4658    2.1931 H       1  UNL1        0.1487
     27 C          -1.4239   -2.8989    0.3101 C.3     1  UNL1       -0.3963
     28 H          -1.2475   -3.4530   -0.6155 H       1  UNL1        0.1464
     29 H          -1.0026   -3.4886    1.1253 H       1  UNL1        0.1459
     30 H          -2.4974   -2.8100    0.4565 H       1  UNL1        0.1502
     31 N           1.4624   -0.9921   -0.5183 N.am    1  UNL1       -0.2419
     32 C           2.8294   -0.6590   -0.4727 C.ar    1  UNL1        0.3070
     33 C           3.2099    0.5726   -1.0018 C.ar    1  UNL1       -0.2848
     34 C           4.5418    0.9490   -1.0005 C.ar    1  UNL1       -0.1158
     35 C           5.5058    0.1066   -0.4634 C.ar    1  UNL1       -0.1748
     36 C           5.1231   -1.1176    0.0639 C.ar    1  UNL1       -0.0948
     37 C           3.7923   -1.5106    0.0588 C.ar    1  UNL1       -0.3125
     38 H           0.9140   -0.4498   -1.1656 H       1  UNL1        0.2696
     39 H           2.4535    1.2391   -1.4008 H       1  UNL1        0.1637
     40 H           4.8249    1.9089   -1.4133 H       1  UNL1        0.1444
     41 H           6.5468    0.4024   -0.4575 H       1  UNL1        0.1436
     42 H           5.8680   -1.7839    0.4805 H       1  UNL1        0.1451
     43 H           3.5001   -2.4670    0.4637 H       1  UNL1        0.1500
@<TRIPOS>BOND
     1    14     9    1
     2    15    10    1
     3    22    17    1
     4    40    34    1
     5    39    33    1
     6    23    18    1
     7     9    10   ar
     8     9     8   ar
     9    38    31    1
    10    10     5   ar
    11    33    34   ar
    12    33    32   ar
    13    34    35   ar
    14    17    18   ar
    15    17    16   ar
    16    13     8    1
    17    28    27    1
    18    18    19   ar
    19    31    32    1
    20    31     2   am
    21     8     7   ar
    22    32    37   ar
    23    35    41    1
    24    35    36   ar
    25     5     4    1
    26     5     6   ar
    27    37    36   ar
    28    37    43    1
    29    36    42    1
    30     4     1    2
    31     4    16    1
    32     1    27    1
    33     1     2    1
    34    16    21   ar
    35    27    30    1
    36    27    29    1
    37     2     3    2
    38    19    24    1
    39    19    20   ar
    40     7     6   ar
    41     7    12    1
    42     6    11    1
    43    21    20   ar
    44    21    26    1
    45    20    25    1
