@<TRIPOS>MOLECULE
GS-209-0.out
 18 18 0 0 0
SMALL
MULLIKEN_CHARGES
****
Gaussian 16 # wB97XD def2tzvp, opt=(calcfc, maxcycles=50, maxstep=10), freq=norama
@<TRIPOS>ATOM
      1 C          -2.1416   -0.8122    0.2613 C.2     1  UNL1       -0.1557
      2 C          -2.4906    0.4547   -0.3808 C.2     1  UNL1        0.1391
      3 O          -3.6282    0.8691   -0.4568 O.2     1  UNL1       -0.3895
      4 C          -0.8945   -1.2538    0.4702 C.2     1  UNL1       -0.1567
      5 H          -0.7854   -2.2690    0.8412 H       1  UNL1        0.1704
      6 C           0.3688   -0.5370    0.2505 C.ar    1  UNL1        0.2441
      7 C           1.4592   -1.2402   -0.2672 C.ar    1  UNL1       -0.2325
      8 C           2.6633   -0.6004   -0.5048 C.ar    1  UNL1       -0.1279
      9 C           2.8068    0.7474   -0.2020 C.ar    1  UNL1       -0.1476
     10 C           1.7427    1.4476    0.3465 C.ar    1  UNL1       -0.1152
     11 C           0.5328    0.8107    0.5741 C.ar    1  UNL1       -0.3027
     12 H           1.3532   -2.2938   -0.4962 H       1  UNL1        0.1478
     13 H           3.4947   -1.1554   -0.9201 H       1  UNL1        0.1487
     14 H           3.7512    1.2459   -0.3788 H       1  UNL1        0.1499
     15 H           1.8560    2.4918    0.6082 H       1  UNL1        0.1496
     16 H          -0.2789    1.3556    1.0389 H       1  UNL1        0.1905
     17 H          -2.9816   -1.4470    0.5206 H       1  UNL1        0.1561
     18 H          -1.6644    1.0182   -0.8459 H       1  UNL1        0.1318
@<TRIPOS>BOND
     1    13     8    1
     2    18     2    1
     3     8     7   ar
     4     8     9   ar
     5    12     7    1
     6     3     2    2
     7     2     1    1
     8    14     9    1
     9     7     6   ar
    10     9    10   ar
    11     6     4    1
    12     6    11   ar
    13     1     4    2
    14     1    17    1
    15    10    11   ar
    16    10    15    1
    17     4     5    1
    18    11    16    1
