@<TRIPOS>MOLECULE
GS-212-0.out
 22 22 0 0 0
SMALL
MULLIKEN_CHARGES
****
Gaussian 16 # wB97XD def2tzvp, opt=(calcfc, maxcycles=50, maxstep=10), freq=norama
@<TRIPOS>ATOM
      1 C          -1.4431   -1.6183    0.0824 C.2     1  UNL1       -0.1927
      2 C          -2.1695   -0.3253    0.0863 C.2     1  UNL1        0.3984
      3 O          -3.1303   -0.1127    0.7886 O.2     1  UNL1       -0.4255
      4 C          -0.1244   -1.8068    0.0705 C.2     1  UNL1       -0.1810
      5 H           0.2168   -2.8375    0.0444 H       1  UNL1        0.1638
      6 C           0.9490   -0.8005    0.1090 C.ar    1  UNL1        0.2455
      7 C           0.8614    0.3550    0.8852 C.ar    1  UNL1       -0.2418
      8 C           1.8975    1.2737    0.9015 C.ar    1  UNL1       -0.1390
      9 C           3.0401    1.0513    0.1449 C.ar    1  UNL1       -0.1477
     10 C           3.1473   -0.1046   -0.6153 C.ar    1  UNL1       -0.1337
     11 C           2.1146   -1.0287   -0.6224 C.ar    1  UNL1       -0.2369
     12 H          -0.0137    0.5278    1.4992 H       1  UNL1        0.1674
     13 H           1.8160    2.1632    1.5132 H       1  UNL1        0.1463
     14 H           3.8492    1.7704    0.1584 H       1  UNL1        0.1473
     15 H           4.0400   -0.2910   -1.1986 H       1  UNL1        0.1459
     16 H           2.2060   -1.9348   -1.2096 H       1  UNL1        0.1441
     17 H          -2.0987   -2.4787    0.1384 H       1  UNL1        0.1682
     18 O          -1.6879    0.5539   -0.7869 O.3     1  UNL1       -0.2627
     19 C          -2.2986    1.8455   -0.7971 C.3     1  UNL1       -0.1990
     20 H          -1.7709    2.4136   -1.5572 H       1  UNL1        0.1482
     21 H          -3.3557    1.7674   -1.0477 H       1  UNL1        0.1426
     22 H          -2.1890    2.3234    0.1761 H       1  UNL1        0.1422
@<TRIPOS>BOND
     1    20    19    1
     2    16    11    1
     3    15    10    1
     4    21    19    1
     5    19    18    1
     6    19    22    1
     7    18     2    1
     8    11    10   ar
     9    11     6   ar
    10    10     9   ar
    11     5     4    1
    12     4     1    2
    13     4     6    1
    14     1     2    1
    15     1    17    1
    16     2     3    2
    17     6     7   ar
    18     9    14    1
    19     9     8   ar
    20     7     8   ar
    21     7    12    1
    22     8    13    1
