@<TRIPOS>MOLECULE
GS-275-0.out
 10 9 0 0 0
SMALL
MULLIKEN_CHARGES
****
Gaussian 16 # wB97XD def2tzvp, opt=(calcfc, maxcycles=50, maxstep=10), freq=norama
@<TRIPOS>ATOM
      1 C           0.2726    0.5264    0.0000 C.2     1  UNL1        0.0234
      2 C          -1.0903   -0.1223    0.0000 C.2     1  UNL1        0.3173
      3 O          -2.0923    0.5745   -0.0000 O.2     1  UNL1       -0.4666
      4 C           0.4078    1.8406    0.0000 C.2     1  UNL1       -0.2681
      5 H           1.3771    2.3178    0.0000 H       1  UNL1        0.1804
      6 H          -0.4817    2.4551    0.0000 H       1  UNL1        0.1775
      7 CL          1.6757   -0.5099   -0.0000 Cl      1  UNL1       -0.1033
      8 N          -1.1248   -1.4612    0.0000 N.am    1  UNL1       -0.4307
      9 H          -2.0188   -1.9204    0.0000 H       1  UNL1        0.2877
     10 H          -0.2908   -2.0197    0.0000 H       1  UNL1        0.2824
@<TRIPOS>BOND
     1     3     2    2
     2     7     1    1
     3     2     1    1
     4     2     8   am
     5     1     4    2
     6     4     5    1
     7     4     6    1
     8     8     9    1
     9     8    10    1
