@<TRIPOS>MOLECULE
GS-298-1.out
 17 16 0 0 0
SMALL
MULLIKEN_CHARGES
****
Gaussian 16 # wB97XD def2tzvp, opt=(calcfc, maxcycles=70, maxstep=1), freq=noraman
@<TRIPOS>ATOM
      1 C          -0.0932    0.6394   -0.0863 C.2     1  UNL1       -0.0614
      2 C           0.7010   -0.6252   -0.1013 C.2     1  UNL1        0.2789
      3 O           0.2561   -1.6660   -0.5455 O.2     1  UNL1       -0.4127
      4 C          -1.4209    0.6338    0.0702 C.2     1  UNL1       -0.1163
      5 H          -1.9056    1.6072    0.0879 H       1  UNL1        0.1381
      6 C          -2.3458   -0.5223    0.2595 C.3     1  UNL1       -0.3291
      7 H          -3.0926   -0.2761    1.0167 H       1  UNL1        0.1290
      8 H          -2.8905   -0.7208   -0.6683 H       1  UNL1        0.1364
      9 H          -1.8295   -1.4367    0.5392 H       1  UNL1        0.1298
     10 C           0.6728    1.9316   -0.2041 C.3     1  UNL1       -0.3733
     11 H           1.2924    1.9467   -1.1040 H       1  UNL1        0.1458
     12 H          -0.0114    2.7779   -0.2500 H       1  UNL1        0.1327
     13 H           1.3397    2.0835    0.6475 H       1  UNL1        0.1370
     14 C           2.1017   -0.5641    0.4521 C.3     1  UNL1       -0.3819
     15 H           2.1051   -0.1089    1.4443 H       1  UNL1        0.1567
     16 H           2.5225   -1.5657    0.4981 H       1  UNL1        0.1368
     17 H           2.7275    0.0615   -0.1885 H       1  UNL1        0.1535
@<TRIPOS>BOND
     1    11    10    1
     2     8     6    1
     3     3     2    2
     4    12    10    1
     5    10     1    1
     6    10    13    1
     7    17    14    1
     8     2     1    1
     9     2    14    1
    10     1     4    2
    11     4     5    1
    12     4     6    1
    13     6     9    1
    14     6     7    1
    15    14    16    1
    16    14    15    1
