@<TRIPOS>MOLECULE
GS-250-0.out
 11 10 0 0 0
SMALL
MULLIKEN_CHARGES
****
Gaussian 16 # wB97XD def2tzvp, opt=(calcfc, maxcycles=50, maxstep=10), freq=norama
@<TRIPOS>ATOM
      1 C           0.8696   -0.6394   -0.0000 C.2     1  UNL1       -0.1890
      2 C          -0.5419   -0.1847    0.0000 C.2     1  UNL1        0.2999
      3 O          -1.4338   -1.0112    0.0000 O.2     1  UNL1       -0.4049
      4 C           1.9225    0.1687    0.0000 C.2     1  UNL1       -0.2520
      5 H           2.9302   -0.2271   -0.0000 H       1  UNL1        0.1666
      6 H           1.8227    1.2474    0.0000 H       1  UNL1        0.1691
      7 H           0.9936   -1.7170   -0.0000 H       1  UNL1        0.1480
      8 C          -0.8414    1.2903   -0.0000 C.3     1  UNL1       -0.3906
      9 H          -0.4055    1.7673   -0.8795 H       1  UNL1        0.1572
     10 H          -1.9178    1.4417    0.0000 H       1  UNL1        0.1388
     11 H          -0.4054    1.7673    0.8795 H       1  UNL1        0.1572
@<TRIPOS>BOND
     1     9     8    1
     2     1     2    1
     3     1     4    2
     4     1     7    1
     5     2     3    2
     6     2     8    1
     7     4     5    1
     8     4     6    1
     9     8    10    1
    10     8    11    1
