@<TRIPOS>MOLECULE
GS-227-0.out
 20 20 0 0 0
SMALL
MULLIKEN_CHARGES
****
Gaussian 16 # wB97XD def2tzvp, opt=(calcfc, maxcycles=50, maxstep=10), freq=norama
@<TRIPOS>ATOM
      1 C          -0.9573   -0.0594   -0.0010 C.2     1  UNL1        0.0504
      2 C          -0.8755    1.4270    0.2357 C.2     1  UNL1        0.2424
      3 O          -1.3024    2.2260   -0.5803 O.2     1  UNL1       -0.4366
      4 C           0.0579   -0.9017   -0.1542 C.2     1  UNL1       -0.2303
      5 H          -0.1721   -1.9535   -0.2861 H       1  UNL1        0.1758
      6 C           1.4899   -0.5575   -0.1522 C.ar    1  UNL1        0.1730
      7 C           2.3925   -1.4668    0.4008 C.ar    1  UNL1       -0.2187
      8 C           3.7482   -1.1850    0.4335 C.ar    1  UNL1       -0.1369
      9 C           4.2246    0.0030   -0.1032 C.ar    1  UNL1       -0.1422
     10 C           3.3382    0.9023   -0.6788 C.ar    1  UNL1       -0.1417
     11 C           1.9813    0.6244   -0.7065 C.ar    1  UNL1       -0.2022
     12 H           2.0247   -2.3980    0.8151 H       1  UNL1        0.1453
     13 H           4.4347   -1.8965    0.8742 H       1  UNL1        0.1473
     14 H           5.2846    0.2216   -0.0841 H       1  UNL1        0.1486
     15 H           3.7053    1.8214   -1.1173 H       1  UNL1        0.1475
     16 H           1.3046    1.3221   -1.1834 H       1  UNL1        0.1620
     17 BR         -2.7462   -0.6827   -0.1012 Br      1  UNL1       -0.0570
     18 N          -0.3258    1.7740    1.4076 N.am    1  UNL1       -0.4137
     19 H           0.0327    1.0849    2.0439 H       1  UNL1        0.3006
     20 H          -0.1976    2.7482    1.6238 H       1  UNL1        0.2864
@<TRIPOS>BOND
     1    16    11    1
     2    15    10    1
     3    11    10   ar
     4    11     6   ar
     5    10     9   ar
     6     3     2    2
     7     5     4    1
     8     4     6    1
     9     4     1    2
    10     6     7   ar
    11     9    14    1
    12     9     8   ar
    13    17     1    1
    14     1     2    1
    15     2    18   am
    16     7     8   ar
    17     7    12    1
    18     8    13    1
    19    18    20    1
    20    18    19    1
