@<TRIPOS>MOLECULE
GS-213-0.out
 23 23 0 0 0
SMALL
MULLIKEN_CHARGES
****
Gaussian 16 # wB97XD def2tzvp, opt=(calcfc, maxcycles=50, maxstep=10), freq=norama
@<TRIPOS>ATOM
      1 C           1.4021   -1.6595    0.0364 C.2     1  UNL1       -0.1869
      2 C           2.1374   -0.3625    0.1222 C.2     1  UNL1        0.3252
      3 O           2.9578   -0.1624    1.0128 O.2     1  UNL1       -0.4938
      4 C           0.0818   -1.8310    0.0163 C.2     1  UNL1       -0.1814
      5 H          -0.2820   -2.8510   -0.0631 H       1  UNL1        0.1606
      6 C          -0.9695   -0.8000    0.0888 C.ar    1  UNL1        0.1649
      7 C          -0.8400    0.3498    0.8692 C.ar    1  UNL1       -0.2057
      8 C          -1.8525    1.2944    0.9077 C.ar    1  UNL1       -0.1451
      9 C          -3.0142    1.1049    0.1719 C.ar    1  UNL1       -0.1428
     10 C          -3.1633   -0.0436   -0.5923 C.ar    1  UNL1       -0.1388
     11 C          -2.1529   -0.9915   -0.6250 C.ar    1  UNL1       -0.2245
     12 H           0.0508    0.4997    1.4664 H       1  UNL1        0.1628
     13 H          -1.7370    2.1786    1.5217 H       1  UNL1        0.1457
     14 H          -3.8047    1.8438    0.2038 H       1  UNL1        0.1471
     15 H          -4.0706   -0.2048   -1.1605 H       1  UNL1        0.1455
     16 H          -2.2763   -1.8905   -1.2176 H       1  UNL1        0.1432
     17 H           2.0475   -2.5303    0.0378 H       1  UNL1        0.1633
     18 N           1.8757    0.5338   -0.8417 N.am    1  UNL1       -0.2888
     19 C           2.4348    1.8665   -0.8283 C.3     1  UNL1       -0.2508
     20 H           1.1578    0.3160   -1.5099 H       1  UNL1        0.2778
     21 H           2.0285    2.4579   -0.0039 H       1  UNL1        0.1356
     22 H           3.5179    1.8217   -0.7189 H       1  UNL1        0.1383
     23 H           2.1937    2.3565   -1.7682 H       1  UNL1        0.1486
@<TRIPOS>BOND
     1    23    19    1
     2    20    18    1
     3    16    11    1
     4    15    10    1
     5    18    19    1
     6    18     2   am
     7    19    22    1
     8    19    21    1
     9    11    10   ar
    10    11     6   ar
    11    10     9   ar
    12     5     4    1
    13     4     1    2
    14     4     6    1
    15     1    17    1
    16     1     2    1
    17     6     7   ar
    18     2     3    2
    19     9    14    1
    20     9     8   ar
    21     7     8   ar
    22     7    12    1
    23     8    13    1
