@<TRIPOS>MOLECULE
GS-261-0.out
 16 15 0 0 0
SMALL
MULLIKEN_CHARGES
****
Gaussian 16 # wB97XD def2tzvp, opt=(calcfc, maxcycles=50, maxstep=10), freq=norama
@<TRIPOS>ATOM
      1 C           1.1631    0.2384   -0.0076 C.2     1  UNL1       -0.0317
      2 C          -0.2395   -0.2896   -0.1200 C.2     1  UNL1        0.3690
      3 O          -0.4584   -1.4239   -0.5346 O.2     1  UNL1       -0.5018
      4 C           1.4513    1.4915   -0.3410 C.2     1  UNL1       -0.3261
      5 H           2.4695    1.8594   -0.2973 H       1  UNL1        0.1494
      6 H           0.6953    2.1844   -0.6898 H       1  UNL1        0.1574
      7 C           2.1908   -0.7638    0.4208 C.3     1  UNL1       -0.3443
      8 H           2.2060   -1.6084   -0.2695 H       1  UNL1        0.1356
      9 H           3.1822   -0.3145    0.4529 H       1  UNL1        0.1306
     10 H           1.9538   -1.1634    1.4096 H       1  UNL1        0.1365
     11 N          -1.2265    0.5407    0.2545 N.am    1  UNL1       -0.3180
     12 C          -2.6191    0.1609    0.1737 C.3     1  UNL1       -0.2496
     13 H          -0.9851    1.4203    0.6734 H       1  UNL1        0.2755
     14 H          -2.8306   -0.6984    0.8129 H       1  UNL1        0.1341
     15 H          -3.2284    1.0009    0.4976 H       1  UNL1        0.1469
     16 H          -2.8896   -0.0990   -0.8503 H       1  UNL1        0.1363
@<TRIPOS>BOND
     1    16    12    1
     2     6     4    1
     3     3     2    2
     4     4     5    1
     5     4     1    2
     6     8     7    1
     7     2     1    1
     8     2    11   am
     9     1     7    1
    10    12    11    1
    11    12    15    1
    12    12    14    1
    13    11    13    1
    14     7     9    1
    15     7    10    1
