@<TRIPOS>MOLECULE
GS-233-0.out
 18 18 0 0 0
SMALL
MULLIKEN_CHARGES
****
Gaussian 16 # wb97xd def2tzvp opt=(calcfc, maxcycles=100, maxstep=10) freq=noraman
@<TRIPOS>ATOM
      1 C          -1.5540   -0.1593    0.0160 C.2     1  UNL1        0.1037
      2 C          -1.5610    1.2209   -0.5024 C.2     1  UNL1        0.0843
      3 O          -2.5491    1.9023   -0.6174 O.2     1  UNL1       -0.3548
      4 C          -0.4512   -0.8895    0.2200 C.2     1  UNL1       -0.1691
      5 H          -0.5855   -1.9379    0.4657 H       1  UNL1        0.1802
      6 C           0.9403   -0.4295    0.1416 C.ar    1  UNL1        0.2255
      7 C           1.3602    0.7898    0.6749 C.ar    1  UNL1       -0.3066
      8 C           2.6879    1.1764    0.5817 C.ar    1  UNL1       -0.1138
      9 C           3.6128    0.3493   -0.0373 C.ar    1  UNL1       -0.1426
     10 C           3.2100   -0.8779   -0.5482 C.ar    1  UNL1       -0.1289
     11 C           1.8871   -1.2707   -0.4476 C.ar    1  UNL1       -0.2283
     12 H           0.6538    1.4233    1.1959 H       1  UNL1        0.1923
     13 H           3.0008    2.1224    1.0041 H       1  UNL1        0.1514
     14 H           4.6495    0.6522   -0.1082 H       1  UNL1        0.1515
     15 H           3.9306   -1.5332   -1.0200 H       1  UNL1        0.1503
     16 H           1.5770   -2.2316   -0.8396 H       1  UNL1        0.1501
     17 CL         -3.1207   -0.8681    0.2632 Cl      1  UNL1       -0.0971
     18 H          -0.5744    1.5867   -0.8249 H       1  UNL1        0.1519
@<TRIPOS>BOND
     1    15    10    1
     2    16    11    1
     3    18     2    1
     4     3     2    2
     5    10    11   ar
     6    10     9   ar
     7     2     1    1
     8    11     6   ar
     9    14     9    1
    10     9     8   ar
    11     1     4    2
    12     1    17    1
    13     6     4    1
    14     6     7   ar
    15     4     5    1
    16     8     7   ar
    17     8    13    1
    18     7    12    1
