@<TRIPOS>MOLECULE
GS-207-1.out
 40 42 0 0 0
SMALL
MULLIKEN_CHARGES
****
Gaussian 16 # wb97xd def2tzvp opt=(calcfc, maxcycles=100, maxstep=10) freq=noraman
@<TRIPOS>ATOM
      1 C           1.3827    0.3901   -0.2209 C.2     1  UNL1        0.0471
      2 C           0.3195   -0.6129   -0.5879 C.2     1  UNL1        0.3187
      3 O           0.2995   -1.1704   -1.6724 O.2     1  UNL1       -0.4633
      4 C           1.0986    1.6878   -0.0714 C.2     1  UNL1       -0.1980
      5 H           1.9191    2.3454    0.1998 H       1  UNL1        0.1727
      6 C          -0.2065    2.3564   -0.2022 C.ar    1  UNL1        0.1886
      7 C          -0.4777    3.4447    0.6297 C.ar    1  UNL1       -0.2367
      8 C          -1.6980    4.0978    0.5720 C.ar    1  UNL1       -0.1454
      9 C          -2.6652    3.6854   -0.3338 C.ar    1  UNL1       -0.1377
     10 C          -2.3977    2.6232   -1.1858 C.ar    1  UNL1       -0.1525
     11 C          -1.1792    1.9665   -1.1246 C.ar    1  UNL1       -0.2125
     12 H           0.2755    3.7730    1.3363 H       1  UNL1        0.1425
     13 H          -1.8927    4.9326    1.2332 H       1  UNL1        0.1451
     14 H          -3.6179    4.1968   -0.3840 H       1  UNL1        0.1469
     15 H          -3.1385    2.3080   -1.9097 H       1  UNL1        0.1454
     16 H          -0.9791    1.1589   -1.8168 H       1  UNL1        0.1581
     17 C           2.7534   -0.1421   -0.0157 C.ar    1  UNL1        0.1551
     18 C           3.5433    0.3486    1.0255 C.ar    1  UNL1       -0.2607
     19 C           4.8298   -0.1258    1.2240 C.ar    1  UNL1       -0.1479
     20 C           5.3483   -1.1070    0.3912 C.ar    1  UNL1       -0.1407
     21 C           4.5670   -1.6122   -0.6377 C.ar    1  UNL1       -0.1374
     22 C           3.2796   -1.1386   -0.8390 C.ar    1  UNL1       -0.2470
     23 H           3.1390    1.0938    1.6990 H       1  UNL1        0.1645
     24 H           5.4244    0.2651    2.0400 H       1  UNL1        0.1444
     25 H           6.3522   -1.4806    0.5479 H       1  UNL1        0.1458
     26 H           4.9615   -2.3793   -1.2921 H       1  UNL1        0.1435
     27 H           2.6801   -1.5332   -1.6478 H       1  UNL1        0.1545
     28 N          -0.5779   -0.8258    0.4071 N.am    1  UNL1       -0.2357
     29 C          -1.7700   -1.5705    0.3791 C.ar    1  UNL1        0.3018
     30 C          -2.6755   -1.3543    1.4180 C.ar    1  UNL1       -0.2987
     31 C          -3.8681   -2.0530    1.4622 C.ar    1  UNL1       -0.0955
     32 C          -4.1772   -2.9747    0.4707 C.ar    1  UNL1       -0.1817
     33 C          -3.2752   -3.1887   -0.5592 C.ar    1  UNL1       -0.1068
     34 C          -2.0721   -2.4983   -0.6146 C.ar    1  UNL1       -0.2951
     35 H          -0.4413   -0.2648    1.2325 H       1  UNL1        0.2752
     36 H          -2.4421   -0.6317    2.1914 H       1  UNL1        0.1459
     37 H          -4.5601   -1.8728    2.2749 H       1  UNL1        0.1468
     38 H          -5.1112   -3.5201    0.5030 H       1  UNL1        0.1443
     39 H          -3.5025   -3.9072   -1.3367 H       1  UNL1        0.1453
     40 H          -1.3749   -2.6734   -1.4175 H       1  UNL1        0.1610
@<TRIPOS>BOND
     1    15    10    1
     2    16    11    1
     3     3     2    2
     4    27    22    1
     5    40    34    1
     6    39    33    1
     7    26    21    1
     8    10    11   ar
     9    10     9   ar
    10    11     6   ar
    11    22    21   ar
    12    22    17   ar
    13    21    20   ar
    14    34    33   ar
    15    34    29   ar
    16     2     1    1
    17     2    28   am
    18    33    32   ar
    19    14     9    1
    20     9     8   ar
    21     1     4    2
    22     1    17    1
    23     6     4    1
    24     6     7   ar
    25     4     5    1
    26    17    18   ar
    27    29    28    1
    28    29    30   ar
    29    20    25    1
    30    20    19   ar
    31    28    35    1
    32    32    38    1
    33    32    31   ar
    34     8     7   ar
    35     8    13    1
    36     7    12    1
    37    18    19   ar
    38    18    23    1
    39    19    24    1
    40    30    31   ar
    41    30    36    1
    42    31    37    1
