@<TRIPOS>MOLECULE
GS-214-0.out
 26 26 0 0 0
SMALL
MULLIKEN_CHARGES
****
Gaussian 16 # wB97XD def2tzvp, opt=(calcfc, maxcycles=50, maxstep=10), freq=norama
@<TRIPOS>ATOM
      1 C           1.2338    1.7417   -0.0640 C.2     1  UNL1       -0.1851
      2 C           1.9820    0.4748   -0.3342 C.2     1  UNL1        0.2822
      3 O           2.6669    0.4178   -1.3554 O.2     1  UNL1       -0.5008
      4 C          -0.0870    1.8997   -0.0348 C.2     1  UNL1       -0.2438
      5 H          -0.4670    2.9035    0.1283 H       1  UNL1        0.1587
      6 C          -1.1090    0.8474   -0.1611 C.ar    1  UNL1        0.2195
      7 C          -2.2723    0.9406    0.6036 C.ar    1  UNL1       -0.2163
      8 C          -3.2370   -0.0526    0.5521 C.ar    1  UNL1       -0.1374
      9 C          -3.0622   -1.1490   -0.2807 C.ar    1  UNL1       -0.1449
     10 C          -1.9228   -1.2382   -1.0684 C.ar    1  UNL1       -0.1482
     11 C          -0.9560   -0.2472   -1.0129 C.ar    1  UNL1       -0.2037
     12 H          -2.4127    1.7954    1.2548 H       1  UNL1        0.1425
     13 H          -4.1281    0.0304    1.1614 H       1  UNL1        0.1451
     14 H          -3.8160   -1.9246   -0.3249 H       1  UNL1        0.1465
     15 H          -1.7892   -2.0802   -1.7359 H       1  UNL1        0.1452
     16 H          -0.0840   -0.3174   -1.6506 H       1  UNL1        0.1591
     17 H           1.8723    2.6146    0.0109 H       1  UNL1        0.1593
     18 N           1.8978   -0.5405    0.5478 N.am    1  UNL1       -0.0908
     19 C           1.1434   -0.5068    1.7842 C.3     1  UNL1       -0.3078
     20 C           2.5119   -1.8161    0.2400 C.3     1  UNL1       -0.2733
     21 H           0.8957    0.5135    2.0582 H       1  UNL1        0.1636
     22 H           0.2191   -1.0837    1.6903 H       1  UNL1        0.1505
     23 H           1.7476   -0.9451    2.5801 H       1  UNL1        0.1509
     24 H           3.0116   -1.7550   -0.7211 H       1  UNL1        0.1494
     25 H           3.2381   -2.0814    1.0110 H       1  UNL1        0.1436
     26 H           1.7451   -2.5943    0.2025 H       1  UNL1        0.1361
@<TRIPOS>BOND
     1    15    10    1
     2    16    11    1
     3     3     2    2
     4    10    11   ar
     5    10     9   ar
     6    11     6   ar
     7    24    20    1
     8     2     1    1
     9     2    18   am
    10    14     9    1
    11     9     8   ar
    12     6     4    1
    13     6     7   ar
    14     1     4    2
    15     1    17    1
    16     4     5    1
    17    26    20    1
    18    20    18    1
    19    20    25    1
    20    18    19    1
    21     8     7   ar
    22     8    13    1
    23     7    12    1
    24    22    19    1
    25    19    21    1
    26    19    23    1
