@<TRIPOS>MOLECULE
GS-228-0.out
 22 22 0 0 0
SMALL
MULLIKEN_CHARGES
****
Gaussian 16 # wB97XD def2tzvp, opt=(calcfc, maxcycles=50, maxstep=10), freq=norama
@<TRIPOS>ATOM
      1 C           0.9802   -0.2811    0.0280 C.2     1  UNL1        0.0386
      2 C           0.8568    1.2094    0.0971 C.2     1  UNL1        0.3460
      3 O           1.3916    1.8904    0.9336 O.2     1  UNL1       -0.3869
      4 C          -0.0236   -1.1515    0.0077 C.2     1  UNL1       -0.2291
      5 H           0.2231   -2.2045   -0.0748 H       1  UNL1        0.1776
      6 C          -1.4578   -0.8338    0.0911 C.ar    1  UNL1        0.2389
      7 C          -2.3564   -1.5953   -0.6561 C.ar    1  UNL1       -0.2353
      8 C          -3.7140   -1.3230   -0.6163 C.ar    1  UNL1       -0.1308
      9 C          -4.1950   -0.2988    0.1874 C.ar    1  UNL1       -0.1463
     10 C          -3.3118    0.4454    0.9570 C.ar    1  UNL1       -0.1345
     11 C          -1.9536    0.1782    0.9127 C.ar    1  UNL1       -0.2513
     12 H          -1.9848   -2.3989   -1.2804 H       1  UNL1        0.1460
     13 H          -4.3984   -1.9151   -1.2101 H       1  UNL1        0.1477
     14 H          -5.2564   -0.0896    0.2240 H       1  UNL1        0.1489
     15 H          -3.6823    1.2317    1.6022 H       1  UNL1        0.1485
     16 H          -1.2792    0.7461    1.5420 H       1  UNL1        0.1712
     17 BR          2.7778   -0.8791    0.0162 Br      1  UNL1       -0.0513
     18 O           0.1012    1.6763   -0.8844 O.3     1  UNL1       -0.2481
     19 C          -0.1678    3.0829   -0.8662 C.3     1  UNL1       -0.1980
     20 H          -0.7871    3.2725   -1.7371 H       1  UNL1        0.1532
     21 H          -0.7017    3.3487    0.0457 H       1  UNL1        0.1470
     22 H           0.7612    3.6473   -0.9268 H       1  UNL1        0.1482
@<TRIPOS>BOND
     1    20    19    1
     2    12     7    1
     3    13     8    1
     4    22    19    1
     5    18    19    1
     6    18     2    1
     7    19    21    1
     8     7     8   ar
     9     7     6   ar
    10     8     9   ar
    11     5     4    1
    12     4     1    2
    13     4     6    1
    14    17     1    1
    15     1     2    1
    16     6    11   ar
    17     2     3    2
    18     9    14    1
    19     9    10   ar
    20    11    10   ar
    21    11    16    1
    22    10    15    1
