@<TRIPOS>MOLECULE
GS-232-0.out
 28 29 0 0 0
SMALL
MULLIKEN_CHARGES
****
Gaussian 16 # wB97XD def2tzvp, opt=(calcfc, maxcycles=50, maxstep=10), freq=norama
@<TRIPOS>ATOM
      1 C           1.4104   -0.4098    0.0922 C.2     1  UNL1        0.0564
      2 C           0.8638    0.8176    0.7709 C.2     1  UNL1        0.2306
      3 O           1.3769    1.2227    1.7904 O.2     1  UNL1       -0.3587
      4 C           0.7376   -1.5118   -0.2265 C.2     1  UNL1       -0.2674
      5 H           1.2707   -2.3077   -0.7352 H       1  UNL1        0.1766
      6 C          -0.6902   -1.7525    0.0314 C.ar    1  UNL1        0.2212
      7 C          -1.4472   -2.3959   -0.9483 C.ar    1  UNL1       -0.2185
      8 C          -2.8044   -2.6012   -0.7668 C.ar    1  UNL1       -0.1338
      9 C          -3.4205   -2.1852    0.4061 C.ar    1  UNL1       -0.1370
     10 C          -2.6695   -1.5744    1.3997 C.ar    1  UNL1       -0.1447
     11 C          -1.3124   -1.3632    1.2165 C.ar    1  UNL1       -0.2212
     12 H          -0.9687   -2.7206   -1.8644 H       1  UNL1        0.1462
     13 H          -3.3827   -3.0890   -1.5409 H       1  UNL1        0.1474
     14 H          -4.4808   -2.3487    0.5500 H       1  UNL1        0.1489
     15 H          -3.1395   -1.2667    2.3249 H       1  UNL1        0.1477
     16 H          -0.7314   -0.9100    2.0098 H       1  UNL1        0.1712
     17 BR          3.2726   -0.2999   -0.2630 Br      1  UNL1       -0.0612
     18 C          -0.2917    1.5139    0.1431 C.ar    1  UNL1        0.1270
     19 C          -0.6201    1.3343   -1.1980 C.ar    1  UNL1       -0.2056
     20 C          -1.6933    2.0170   -1.7467 C.ar    1  UNL1       -0.1432
     21 C          -2.4497    2.8705   -0.9568 C.ar    1  UNL1       -0.1195
     22 C          -2.1256    3.0536    0.3822 C.ar    1  UNL1       -0.1259
     23 C          -1.0459    2.3844    0.9281 C.ar    1  UNL1       -0.2108
     24 H          -0.0360    0.6654   -1.8158 H       1  UNL1        0.1707
     25 H          -1.9414    1.8799   -2.7910 H       1  UNL1        0.1500
     26 H          -3.2946    3.3953   -1.3845 H       1  UNL1        0.1526
     27 H          -2.7180    3.7174    0.9982 H       1  UNL1        0.1503
     28 H          -0.7835    2.5168    1.9694 H       1  UNL1        0.1505
@<TRIPOS>BOND
     1    25    20    1
     2    12     7    1
     3    24    19    1
     4    20    19   ar
     5    20    21   ar
     6    13     8    1
     7    26    21    1
     8    19    18   ar
     9    21    22   ar
    10     7     8   ar
    11     7     6   ar
    12     8     9   ar
    13     5     4    1
    14    17     1    1
    15     4     6    1
    16     4     1    2
    17     6    11   ar
    18     1     2    1
    19    18     2    1
    20    18    23   ar
    21    22    23   ar
    22    22    27    1
    23     9    14    1
    24     9    10   ar
    25     2     3    2
    26    23    28    1
    27    11    10   ar
    28    11    16    1
    29    10    15    1
