@<TRIPOS>MOLECULE
GS-248-0.out
 28 29 0 0 0
SMALL
MULLIKEN_CHARGES
****
Gaussian 16 # wB97XD def2tzvp, opt=(calcfc, maxcycles=50, maxstep=10), freq=norama
@<TRIPOS>ATOM
      1 C          -0.6960    1.5890   -0.2589 C.2     1  UNL1        0.0595
      2 C           0.7152    1.5716    0.2665 C.2     1  UNL1        0.2509
      3 O           1.1589    2.5229    0.8758 O.2     1  UNL1       -0.3823
      4 C          -1.0956    2.6681   -0.9264 C.2     1  UNL1       -0.2765
      5 H          -2.0999    2.7516   -1.3225 H       1  UNL1        0.1605
      6 H          -0.4212    3.4974   -1.0964 H       1  UNL1        0.1614
      7 C          -1.5650    0.4175    0.0004 C.ar    1  UNL1        0.1022
      8 C          -2.4995   -0.0130   -0.9403 C.ar    1  UNL1       -0.2385
      9 C          -3.3226   -1.0952   -0.6733 C.ar    1  UNL1       -0.1419
     10 C          -3.2212   -1.7683    0.5362 C.ar    1  UNL1       -0.1317
     11 C          -2.2897   -1.3529    1.4769 C.ar    1  UNL1       -0.1584
     12 C          -1.4664   -0.2710    1.2091 C.ar    1  UNL1       -0.2013
     13 H          -2.5685    0.4910   -1.8963 H       1  UNL1        0.1568
     14 H          -4.0394   -1.4200   -1.4168 H       1  UNL1        0.1449
     15 H          -3.8613   -2.6166    0.7422 H       1  UNL1        0.1469
     16 H          -2.2030   -1.8722    2.4227 H       1  UNL1        0.1451
     17 H          -0.7452    0.0452    1.9538 H       1  UNL1        0.1568
     18 C           1.5592    0.3703    0.0005 C.ar    1  UNL1        0.0722
     19 C           2.6599    0.1251    0.8185 C.ar    1  UNL1       -0.1948
     20 C           3.4763   -0.9665    0.5796 C.ar    1  UNL1       -0.1342
     21 C           3.2090   -1.8112   -0.4904 C.ar    1  UNL1       -0.1194
     22 C           2.1217   -1.5654   -1.3170 C.ar    1  UNL1       -0.1582
     23 C           1.2932   -0.4835   -1.0673 C.ar    1  UNL1       -0.1873
     24 H           2.8620    0.7941    1.6448 H       1  UNL1        0.1480
     25 H           4.3228   -1.1603    1.2255 H       1  UNL1        0.1490
     26 H           3.8499   -2.6630   -0.6799 H       1  UNL1        0.1513
     27 H           1.9170   -2.2188   -2.1550 H       1  UNL1        0.1482
     28 H           0.4448   -0.2984   -1.7134 H       1  UNL1        0.1709
@<TRIPOS>BOND
     1    27    22    1
     2    13     8    1
     3    28    23    1
     4    14     9    1
     5     5     4    1
     6    22    23   ar
     7    22    21   ar
     8     6     4    1
     9    23    18   ar
    10     8     9   ar
    11     8     7   ar
    12     4     1    2
    13    26    21    1
    14     9    10   ar
    15    21    20   ar
    16     1     7    1
    17     1     2    1
    18     7    12   ar
    19    18     2    1
    20    18    19   ar
    21     2     3    2
    22    10    15    1
    23    10    11   ar
    24    20    19   ar
    25    20    25    1
    26    19    24    1
    27    12    11   ar
    28    12    17    1
    29    11    16    1
