@<TRIPOS>MOLECULE
GS-292-0.out
 15 14 0 0 0
SMALL
MULLIKEN_CHARGES
****
Gaussian 16 # wB97XD def2tzvp, opt=(calcfc, maxcycles=50, maxstep=10), freq=norama
@<TRIPOS>ATOM
      1 C          -0.6887    0.9736    0.0001 C.2     1  UNL1       -0.3170
      2 C           0.4183   -0.0023    0.0001 C.2     1  UNL1        0.4866
      3 O           0.3353   -1.2093    0.0002 O.2     1  UNL1       -0.4458
      4 C          -1.9909    0.6867    0.0000 C.2     1  UNL1       -0.0546
      5 H          -2.6637    1.5400    0.0001 H       1  UNL1        0.1535
      6 C          -2.6657   -0.6404   -0.0001 C.3     1  UNL1       -0.3350
      7 H          -3.3174   -0.7143    0.8744 H       1  UNL1        0.1382
      8 H          -3.3174   -0.7141   -0.8747 H       1  UNL1        0.1382
      9 H          -1.9657   -1.4692   -0.0002 H       1  UNL1        0.1436
     10 H          -0.3783    2.0105    0.0002 H       1  UNL1        0.1511
     11 O           1.5945    0.6382   -0.0001 O.3     1  UNL1       -0.2846
     12 C           2.7635   -0.1798   -0.0001 C.3     1  UNL1       -0.1939
     13 H           3.6049    0.5069   -0.0005 H       1  UNL1        0.1462
     14 H           2.7908   -0.8090    0.8892 H       1  UNL1        0.1367
     15 H           2.7904   -0.8095   -0.8890 H       1  UNL1        0.1367
@<TRIPOS>BOND
     1    15    12    1
     2     8     6    1
     3    13    12    1
     4     9     6    1
     5     6     4    1
     6     6     7    1
     7    12    11    1
     8    12    14    1
     9    11     2    1
    10     4     5    1
    11     4     1    2
    12     2     1    1
    13     2     3    2
    14     1    10    1
