@<TRIPOS>MOLECULE
GS-286-1.out
 29 29 0 0 0
SMALL
MULLIKEN_CHARGES
****
Gaussian 16 # wB97XD def2tzvp, opt=(calcfc, maxcycles=70, maxstep=1), freq=noraman
@<TRIPOS>ATOM
      1 C           0.3670    0.8263   -0.2357 C.2     1  UNL1       -0.0727
      2 C           1.4098   -0.2220   -0.5358 C.2     1  UNL1        0.1982
      3 O           1.8415   -0.3459   -1.6798 O.2     1  UNL1       -0.4900
      4 C           0.7134    2.1062   -0.1161 C.2     1  UNL1       -0.0656
      5 H          -0.0763    2.8392    0.0185 H       1  UNL1        0.1454
      6 C           2.1031    2.6496   -0.1429 C.3     1  UNL1       -0.3537
      7 H           2.3078    3.2031    0.7769 H       1  UNL1        0.1368
      8 H           2.8562    1.8695   -0.2503 H       1  UNL1        0.1339
      9 H           2.2215    3.3562   -0.9681 H       1  UNL1        0.1399
     10 C          -1.0321    0.3428   -0.1534 C.ar    1  UNL1        0.1374
     11 C          -1.9740    0.9839    0.6530 C.ar    1  UNL1       -0.2303
     12 C          -3.2817    0.5308    0.7144 C.ar    1  UNL1       -0.1487
     13 C          -3.6723   -0.5819   -0.0179 C.ar    1  UNL1       -0.1340
     14 C          -2.7414   -1.2394   -0.8085 C.ar    1  UNL1       -0.1664
     15 C          -1.4337   -0.7837   -0.8727 C.ar    1  UNL1       -0.2124
     16 H          -1.6758    1.8339    1.2538 H       1  UNL1        0.1536
     17 H          -3.9958    1.0415    1.3482 H       1  UNL1        0.1432
     18 H          -4.6927   -0.9392    0.0354 H       1  UNL1        0.1453
     19 H          -3.0330   -2.1116   -1.3799 H       1  UNL1        0.1433
     20 H          -0.7195   -1.3021   -1.5012 H       1  UNL1        0.1499
     21 N           1.8005   -1.0103    0.4846 N.am    1  UNL1       -0.0746
     22 C           2.7233   -2.1031    0.2550 C.3     1  UNL1       -0.2794
     23 C           1.3179   -0.8831    1.8448 C.3     1  UNL1       -0.2861
     24 H           2.9582   -2.1615   -0.8027 H       1  UNL1        0.1495
     25 H           3.6434   -1.9464    0.8226 H       1  UNL1        0.1429
     26 H           2.2713   -3.0429    0.5801 H       1  UNL1        0.1385
     27 H           0.7575    0.0378    1.9717 H       1  UNL1        0.1666
     28 H           0.6774   -1.7296    2.1053 H       1  UNL1        0.1445
     29 H           2.1671   -0.8677    2.5307 H       1  UNL1        0.1453
@<TRIPOS>BOND
     1     3     2    2
     2    20    15    1
     3    19    14    1
     4     9     6    1
     5    15    14   ar
     6    15    10   ar
     7    14    13   ar
     8    24    22    1
     9     2     1    1
    10     2    21   am
    11     8     6    1
    12     1    10    1
    13     1     4    2
    14    10    11   ar
    15     6     4    1
    16     6     7    1
    17     4     5    1
    18    13    18    1
    19    13    12   ar
    20    22    21    1
    21    22    26    1
    22    22    25    1
    23    21    23    1
    24    11    12   ar
    25    11    16    1
    26    12    17    1
    27    23    27    1
    28    23    28    1
    29    23    29    1
