@<TRIPOS>MOLECULE
GS-37-0.out
 33 34 0 0 0
SMALL
MULLIKEN_CHARGES
****
Gaussian 16 # wB97XD def2tzvp, opt=(calcfc, maxcycles=70, maxstep=10), freq=norama
@<TRIPOS>ATOM
      1 C          -0.3052   -1.3710   -0.1437 C.2     1  UNL1        0.0464
      2 C          -1.7910   -1.6277   -0.1612 C.2     1  UNL1        0.1956
      3 O          -2.3279   -2.2058   -1.0944 O.2     1  UNL1       -0.4605
      4 C           0.2687   -0.1669   -0.0734 C.2     1  UNL1        0.1234
      5 C           1.7390    0.0361   -0.0105 C.ar    1  UNL1        0.0998
      6 C           2.3666    0.8228   -0.9735 C.ar    1  UNL1       -0.2172
      7 C           3.7340    1.0407   -0.9193 C.ar    1  UNL1       -0.1496
      8 C           4.4854    0.4934    0.1114 C.ar    1  UNL1       -0.1309
      9 C           3.8634   -0.2749    1.0850 C.ar    1  UNL1       -0.1300
     10 C           2.4978   -0.5058    1.0228 C.ar    1  UNL1       -0.2491
     11 H           1.7795    1.2628   -1.7705 H       1  UNL1        0.1557
     12 H           4.2126    1.6439   -1.6801 H       1  UNL1        0.1450
     13 H           5.5524    0.6701    0.1586 H       1  UNL1        0.1475
     14 H           4.4422   -0.6954    1.8975 H       1  UNL1        0.1454
     15 H           2.0143   -1.1035    1.7850 H       1  UNL1        0.1590
     16 C          -0.5599    1.0696   -0.0819 C.ar    1  UNL1        0.0643
     17 C          -0.3561    2.0451    0.8926 C.ar    1  UNL1       -0.1952
     18 C          -1.1263    3.1961    0.9049 C.ar    1  UNL1       -0.1509
     19 C          -2.0965    3.3965   -0.0681 C.ar    1  UNL1       -0.1241
     20 C          -2.2899    2.4410   -1.0543 C.ar    1  UNL1       -0.1501
     21 C          -1.5252    1.2844   -1.0626 C.ar    1  UNL1       -0.1907
     22 H           0.4042    1.8947    1.6493 H       1  UNL1        0.1591
     23 H          -0.9673    3.9404    1.6747 H       1  UNL1        0.1452
     24 H          -2.6942    4.2989   -0.0610 H       1  UNL1        0.1477
     25 H          -3.0345    2.5968   -1.8244 H       1  UNL1        0.1460
     26 H          -1.6722    0.5457   -1.8405 H       1  UNL1        0.1531
     27 CL          0.6098   -2.8391   -0.3135 Cl      1  UNL1       -0.0808
     28 N          -2.4487   -1.1988    0.9230 N.am    1  UNL1       -0.2664
     29 C          -3.8910   -1.2539    1.0125 C.3     1  UNL1       -0.2523
     30 H          -1.9361   -0.6985    1.6279 H       1  UNL1        0.2824
     31 H          -4.1892   -0.9602    2.0155 H       1  UNL1        0.1512
     32 H          -4.3541   -0.5790    0.2892 H       1  UNL1        0.1396
     33 H          -4.2434   -2.2661    0.8175 H       1  UNL1        0.1415
@<TRIPOS>BOND
     1    26    21    1
     2    25    20    1
     3    11     6    1
     4    12     7    1
     5     3     2    2
     6    21    20   ar
     7    21    16   ar
     8    20    19   ar
     9     6     7   ar
    10     6     5   ar
    11     7     8   ar
    12    27     1    1
    13     2     1    1
    14     2    28   am
    15     1     4    2
    16    16     4    1
    17    16    17   ar
    18     4     5    1
    19    19    24    1
    20    19    18   ar
    21     5    10   ar
    22     8    13    1
    23     8     9   ar
    24    32    29    1
    25    33    29    1
    26    17    18   ar
    27    17    22    1
    28    18    23    1
    29    28    29    1
    30    28    30    1
    31    29    31    1
    32    10     9   ar
    33    10    15    1
    34     9    14    1
