@<TRIPOS>MOLECULE
GS-36-1.out
 32 33 0 0 0
SMALL
MULLIKEN_CHARGES
****
Gaussian 16 # wB97XD def2tzvp, opt=(maxcycles=70, maxstep=1), freq=noraman, scrf=(
@<TRIPOS>ATOM
      1 C          -0.2817   -1.3889   -0.1184 C.2     1  UNL1        0.0186
      2 C          -1.7544   -1.6695   -0.1119 C.2     1  UNL1        0.2797
      3 O          -2.3074   -2.3603   -0.9285 O.2     1  UNL1       -0.3895
      4 C           0.2652   -0.1709   -0.0531 C.2     1  UNL1        0.1201
      5 C           1.7308    0.0610   -0.0074 C.ar    1  UNL1        0.1103
      6 C           2.3278    0.8840   -0.9596 C.ar    1  UNL1       -0.2136
      7 C           3.6910    1.1287   -0.9190 C.ar    1  UNL1       -0.1497
      8 C           4.4677    0.5736    0.0885 C.ar    1  UNL1       -0.1301
      9 C           3.8757   -0.2300    1.0523 C.ar    1  UNL1       -0.1297
     10 C           2.5150   -0.4895    1.0026 C.ar    1  UNL1       -0.2480
     11 H           1.7206    1.3304   -1.7376 H       1  UNL1        0.1580
     12 H           4.1463    1.7594   -1.6717 H       1  UNL1        0.1457
     13 H           5.5313    0.7719    0.1256 H       1  UNL1        0.1481
     14 H           4.4742   -0.6561    1.8473 H       1  UNL1        0.1462
     15 H           2.0551   -1.1144    1.7575 H       1  UNL1        0.1615
     16 C          -0.5867    1.0468   -0.0684 C.ar    1  UNL1        0.1814
     17 C          -0.4025    2.0339    0.8978 C.ar    1  UNL1       -0.2289
     18 C          -1.1948    3.1693    0.8982 C.ar    1  UNL1       -0.1480
     19 C          -2.1660    3.3432   -0.0795 C.ar    1  UNL1       -0.1305
     20 C          -2.3374    2.3775   -1.0594 C.ar    1  UNL1       -0.1358
     21 C          -1.5502    1.2358   -1.0555 C.ar    1  UNL1       -0.2457
     22 H           0.3578    1.9037    1.6580 H       1  UNL1        0.1588
     23 H          -1.0528    3.9229    1.6622 H       1  UNL1        0.1455
     24 H          -2.7806    4.2343   -0.0814 H       1  UNL1        0.1480
     25 H          -3.0812    2.5135   -1.8340 H       1  UNL1        0.1468
     26 H          -1.6764    0.4919   -1.8327 H       1  UNL1        0.1614
     27 CL          0.6563   -2.8360   -0.3199 Cl      1  UNL1       -0.0728
     28 O          -2.3591   -1.0880    0.9126 O.3     1  UNL1       -0.2551
     29 C          -3.7859   -1.1935    0.9518 C.3     1  UNL1       -0.1979
     30 H          -4.0935   -0.6583    1.8446 H       1  UNL1        0.1526
     31 H          -4.2178   -0.7323    0.0641 H       1  UNL1        0.1454
     32 H          -4.0889   -2.2377    1.0086 H       1  UNL1        0.1472
@<TRIPOS>BOND
     1    25    20    1
     2    26    21    1
     3    11     6    1
     4    12     7    1
     5    20    21   ar
     6    20    19   ar
     7    21    16   ar
     8     6     7   ar
     9     6     5   ar
    10     3     2    2
    11     7     8   ar
    12    27     1    1
    13     1     2    1
    14     1     4    2
    15     2    28    1
    16    24    19    1
    17    19    18   ar
    18    16     4    1
    19    16    17   ar
    20     4     5    1
    21     5    10   ar
    22    31    29    1
    23     8    13    1
    24     8     9   ar
    25    17    18   ar
    26    17    22    1
    27    18    23    1
    28    28    29    1
    29    29    32    1
    30    29    30    1
    31    10     9   ar
    32    10    15    1
    33     9    14    1
