@<TRIPOS>MOLECULE
GS-335-0.out
 20 20 0 0 0
SMALL
MULLIKEN_CHARGES
****
Gaussian 16 # wB97XD def2tzvp, opt=(calcfc, maxcycles=70, maxstep=8), freq=noraman
@<TRIPOS>ATOM
      1 C          -1.8055    1.5845    0.6798 C.2     1  UNL1       -0.2949
      2 C          -0.3840    1.5474    0.2188 C.2     1  UNL1        0.4659
      3 O           0.0665    2.4888   -0.4112 O.2     1  UNL1       -0.4656
      4 C          -2.7611    0.6892    0.4983 C.2     1  UNL1       -0.1101
      5 H          -3.7770    0.8644    0.8199 H       1  UNL1        0.1998
      6 BR         -2.5686   -0.9811   -0.3607 Br      1  UNL1       -0.0522
      7 H          -2.0923    2.5226    1.1420 H       1  UNL1        0.1842
      8 N           0.3152    0.4455    0.5817 N.am    1  UNL1       -0.2780
      9 C           1.6411    0.0893    0.2780 C.ar    1  UNL1        0.3141
     10 C           2.0844   -1.1469    0.7496 C.ar    1  UNL1       -0.3010
     11 C           3.3750   -1.5713    0.4927 C.ar    1  UNL1       -0.0973
     12 C           4.2435   -0.7716   -0.2382 C.ar    1  UNL1       -0.1852
     13 C           3.8008    0.4552   -0.7057 C.ar    1  UNL1       -0.1053
     14 C           2.5082    0.8957   -0.4556 C.ar    1  UNL1       -0.2955
     15 H          -0.1922   -0.2314    1.1284 H       1  UNL1        0.2726
     16 H           1.4119   -1.7776    1.3192 H       1  UNL1        0.1464
     17 H           3.7021   -2.5333    0.8661 H       1  UNL1        0.1476
     18 H           5.2537   -1.1030   -0.4398 H       1  UNL1        0.1445
     19 H           4.4675    1.0889   -1.2770 H       1  UNL1        0.1458
     20 H           2.1738    1.8518   -0.8229 H       1  UNL1        0.1641
@<TRIPOS>BOND
     1    19    13    1
     2    20    14    1
     3    13    14   ar
     4    13    12   ar
     5    14     9   ar
     6    18    12    1
     7     3     2    2
     8     6     4    1
     9    12    11   ar
    10     2     8   am
    11     2     1    1
    12     9     8    1
    13     9    10   ar
    14    11    10   ar
    15    11    17    1
    16     4     1    2
    17     4     5    1
    18     8    15    1
    19     1     7    1
    20    10    16    1
