@<TRIPOS>MOLECULE
GS-312-1.out
 21 21 0 0 0
SMALL
MULLIKEN_CHARGES
****
Gaussian 16 # wB97XD def2tzvp, opt=(calcfc, maxcycles=70, maxstep=1), freq=noraman
@<TRIPOS>ATOM
      1 C          -1.2939    0.4764   -0.0329 C.2     1  UNL1       -0.0511
      2 C          -0.0703    0.7032    0.8164 C.2     1  UNL1        0.3015
      3 O          -0.1849    1.2422    1.8948 O.2     1  UNL1       -0.3655
      4 C          -1.9070    1.3922   -0.7621 C.2     1  UNL1       -0.1170
      5 H          -2.7989    1.1099   -1.3107 H       1  UNL1        0.1629
      6 C          -1.4502    2.8074   -0.9059 C.3     1  UNL1       -0.3421
      7 H          -1.2777    3.0352   -1.9598 H       1  UNL1        0.1450
      8 H          -2.2281    3.4878   -0.5531 H       1  UNL1        0.1477
      9 H          -0.5355    3.0138   -0.3520 H       1  UNL1        0.1394
     10 BR         -1.9315   -1.3140    0.0738 Br      1  UNL1       -0.0720
     11 C           1.2422    0.2469    0.2909 C.ar    1  UNL1        0.0747
     12 C           2.3435    0.2324    1.1464 C.ar    1  UNL1       -0.2159
     13 C           3.5812   -0.1668    0.6775 C.ar    1  UNL1       -0.1209
     14 C           3.7299   -0.5470   -0.6514 C.ar    1  UNL1       -0.1225
     15 C           2.6396   -0.5302   -1.5089 C.ar    1  UNL1       -0.1473
     16 C           1.3966   -0.1383   -1.0390 C.ar    1  UNL1       -0.1985
     17 H           2.2141    0.5335    2.1776 H       1  UNL1        0.1499
     18 H           4.4331   -0.1827    1.3446 H       1  UNL1        0.1515
     19 H           4.7000   -0.8575   -1.0181 H       1  UNL1        0.1535
     20 H           2.7572   -0.8230   -2.5439 H       1  UNL1        0.1512
     21 H           0.5473   -0.1229   -1.7100 H       1  UNL1        0.1755
@<TRIPOS>BOND
     1    20    15    1
     2     7     6    1
     3    21    16    1
     4    15    16   ar
     5    15    14   ar
     6     5     4    1
     7    16    11   ar
     8    19    14    1
     9     6     4    1
    10     6     8    1
    11     6     9    1
    12     4     1    2
    13    14    13   ar
    14     1    10    1
    15     1     2    1
    16    11     2    1
    17    11    12   ar
    18    13    12   ar
    19    13    18    1
    20     2     3    2
    21    12    17    1
