@<TRIPOS>MOLECULE
GS-396-0.out
 12 11 0 0 0
SMALL
MULLIKEN_CHARGES
****
Gaussian 16 # wB97XD def2tzvp, opt=(calcfc, maxcycles=70, maxstep=10), freq=norama
@<TRIPOS>ATOM
      1 C           0.2537    0.6014   -0.0000 C.2     1  UNL1       -0.0605
      2 C          -0.6729   -0.5695   -0.0000 C.2     1  UNL1        0.4480
      3 O          -0.2962   -1.7134   -0.0000 O.2     1  UNL1       -0.3963
      4 C           1.5845    0.5444    0.0000 C.2     1  UNL1       -0.0767
      5 H           2.1647    1.4559    0.0000 H       1  UNL1        0.1989
      6 CL          2.5520   -0.8615    0.0000 Cl      1  UNL1       -0.0220
      7 CL         -0.4547    2.1872   -0.0000 Cl      1  UNL1       -0.0705
      8 O          -1.9443   -0.2034    0.0000 O.3     1  UNL1       -0.2671
      9 C          -2.9058   -1.2636    0.0000 C.3     1  UNL1       -0.1975
     10 H          -3.8757   -0.7764    0.0000 H       1  UNL1        0.1529
     11 H          -2.7882   -1.8794   -0.8904 H       1  UNL1        0.1453
     12 H          -2.7882   -1.8794    0.8904 H       1  UNL1        0.1453
@<TRIPOS>BOND
     1    11     9    1
     2     3     2    2
     3     2     1    1
     4     2     8    1
     5     7     1    1
     6     1     4    2
     7     4     6    1
     8     4     5    1
     9     9     8    1
    10     9    10    1
    11     9    12    1
