@<TRIPOS>MOLECULE
GS-320-0.out
 21 21 0 0 0
SMALL
MULLIKEN_CHARGES
****
Gaussian 16 # wB97XD def2tzvp, opt=(calcfc, maxcycles=70, maxstep=8), freq=noraman
@<TRIPOS>ATOM
      1 C          -1.6628    0.2051   -0.0945 C.2     1  UNL1       -0.0002
      2 C          -0.5302   -0.6603   -0.5802 C.2     1  UNL1        0.2898
      3 O          -0.7685   -1.6243   -1.2736 O.2     1  UNL1       -0.3671
      4 C          -2.6255   -0.1788    0.7286 C.2     1  UNL1       -0.1210
      5 H          -3.3905    0.5452    0.9877 H       1  UNL1        0.1595
      6 C          -2.7400   -1.5275    1.3574 C.3     1  UNL1       -0.3392
      7 H          -2.7921   -1.4243    2.4431 H       1  UNL1        0.1434
      8 H          -3.6668   -2.0086    1.0373 H       1  UNL1        0.1457
      9 H          -1.9082   -2.1831    1.1073 H       1  UNL1        0.1377
     10 CL         -1.6250    1.8225   -0.7557 Cl      1  UNL1       -0.1061
     11 C           0.8544   -0.2984   -0.1790 C.ar    1  UNL1        0.0890
     12 C           1.9261   -0.8495   -0.8796 C.ar    1  UNL1       -0.2094
     13 C           3.2245   -0.5574   -0.5038 C.ar    1  UNL1       -0.1240
     14 C           3.4609    0.2765    0.5826 C.ar    1  UNL1       -0.1228
     15 C           2.3984    0.8214    1.2891 C.ar    1  UNL1       -0.1474
     16 C           1.0970    0.5408    0.9059 C.ar    1  UNL1       -0.2080
     17 H           1.7276   -1.5020   -1.7198 H       1  UNL1        0.1498
     18 H           4.0550   -0.9792   -1.0547 H       1  UNL1        0.1512
     19 H           4.4777    0.5017    0.8785 H       1  UNL1        0.1532
     20 H           2.5835    1.4661    2.1382 H       1  UNL1        0.1512
     21 H           0.2693    0.9647    1.4602 H       1  UNL1        0.1747
@<TRIPOS>BOND
     1    17    12    1
     2     3     2    2
     3    18    13    1
     4    12    13   ar
     5    12    11   ar
     6    10     1    1
     7     2    11    1
     8     2     1    1
     9    13    14   ar
    10    11    16   ar
    11     1     4    2
    12    14    19    1
    13    14    15   ar
    14     4     5    1
    15     4     6    1
    16    16    15   ar
    17    16    21    1
    18     8     6    1
    19     9     6    1
    20    15    20    1
    21     6     7    1
