@<TRIPOS>MOLECULE
GS-305-0.out
 11 10 0 0 0
SMALL
MULLIKEN_CHARGES
****
Gaussian 16 # wB97XD def2tzvp, opt=(calcfc, maxcycles=70, maxstep=8), freq=noraman
@<TRIPOS>ATOM
      1 C          -0.3514   -0.0132   -0.0179 C.2     1  UNL1       -0.0023
      2 C          -0.8720    1.3700   -0.1012 C.2     1  UNL1        0.1452
      3 O          -2.0176    1.6816    0.1105 O.2     1  UNL1       -0.3592
      4 C          -1.0594   -1.1428    0.0076 C.2     1  UNL1       -0.0975
      5 H          -0.5060   -2.0745    0.0567 H       1  UNL1        0.1747
      6 C          -2.5416   -1.2798   -0.0322 C.3     1  UNL1       -0.3283
      7 H          -2.8088   -2.1138   -0.6825 H       1  UNL1        0.1427
      8 H          -2.9039   -1.5306    0.9692 H       1  UNL1        0.1521
      9 H          -3.0438   -0.3744   -0.3571 H       1  UNL1        0.1439
     10 BR          1.5563   -0.0884    0.0104 Br      1  UNL1       -0.0935
     11 H          -0.1188    2.1295   -0.3733 H       1  UNL1        0.1222
@<TRIPOS>BOND
     1     7     6    1
     2    11     2    1
     3     9     6    1
     4     2     1    1
     5     2     3    2
     6     6     4    1
     7     6     8    1
     8     1     4    2
     9     1    10    1
    10     4     5    1
