@<TRIPOS>MOLECULE
GS-30-1.out
 36 37 0 0 0
SMALL
MULLIKEN_CHARGES
****
Gaussian 16 # wB97XD def2tzvp, opt=(maxcycles=70, maxstep=1), freq=noraman, scrf=(
@<TRIPOS>ATOM
      1 C           0.1939   -1.0076   -0.2065 C.2     1  UNL1       -0.0651
      2 C           1.6437   -1.3901   -0.3604 C.2     1  UNL1        0.1799
      3 O           2.0211   -1.8698   -1.4240 O.2     1  UNL1       -0.4702
      4 C          -0.2746    0.2394   -0.1548 C.2     1  UNL1        0.1108
      5 C          -1.7175    0.5744   -0.0287 C.ar    1  UNL1        0.1189
      6 C          -2.4387    0.2253    1.1087 C.ar    1  UNL1       -0.2493
      7 C          -3.7733    0.5818    1.2287 C.ar    1  UNL1       -0.1326
      8 C          -4.4006    1.2843    0.2100 C.ar    1  UNL1       -0.1264
      9 C          -3.6850    1.6395   -0.9252 C.ar    1  UNL1       -0.1566
     10 C          -2.3472    1.2961   -1.0390 C.ar    1  UNL1       -0.2118
     11 H          -1.9504   -0.3226    1.9050 H       1  UNL1        0.1619
     12 H          -4.3233    0.3104    2.1207 H       1  UNL1        0.1447
     13 H          -5.4436    1.5592    0.3023 H       1  UNL1        0.1471
     14 H          -4.1682    2.1903   -1.7220 H       1  UNL1        0.1447
     15 H          -1.7855    1.5858   -1.9189 H       1  UNL1        0.1515
     16 C           0.6574    1.3996   -0.1973 C.ar    1  UNL1        0.1746
     17 C           1.6475    1.5112   -1.1703 C.ar    1  UNL1       -0.2240
     18 C           2.5119    2.5959   -1.1717 C.ar    1  UNL1       -0.1439
     19 C           2.3956    3.5822   -0.2042 C.ar    1  UNL1       -0.1322
     20 C           1.4015    3.4863    0.7605 C.ar    1  UNL1       -0.1294
     21 C           0.5332    2.4081    0.7585 C.ar    1  UNL1       -0.2552
     22 H           1.7368    0.7513   -1.9357 H       1  UNL1        0.1502
     23 H           3.2746    2.6712   -1.9362 H       1  UNL1        0.1449
     24 H           3.0715    4.4278   -0.2057 H       1  UNL1        0.1470
     25 H           1.3012    4.2549    1.5161 H       1  UNL1        0.1448
     26 H          -0.2428    2.3389    1.5109 H       1  UNL1        0.1588
     27 BR         -0.9378   -2.5316   -0.2435 Br      1  UNL1       -0.0440
     28 N           2.4516   -1.1825    0.6928 N.am    1  UNL1       -0.0746
     29 C           3.8790   -1.3958    0.5535 C.3     1  UNL1       -0.2807
     30 C           2.0268   -0.6823    1.9858 C.3     1  UNL1       -0.3097
     31 H           4.1068   -1.6630   -0.4730 H       1  UNL1        0.1532
     32 H           4.4103   -0.4793    0.8191 H       1  UNL1        0.1416
     33 H           4.2086   -2.1962    1.2190 H       1  UNL1        0.1488
     34 H           0.9521   -0.7735    2.1058 H       1  UNL1        0.1696
     35 H           2.5133   -1.2684    2.7662 H       1  UNL1        0.1564
     36 H           2.3108    0.3661    2.1061 H       1  UNL1        0.1562
@<TRIPOS>BOND
     1    23    18    1
     2    22    17    1
     3    15    10    1
     4    14     9    1
     5     3     2    2
     6    18    17   ar
     7    18    19   ar
     8    17    16   ar
     9    10     9   ar
    10    10     5   ar
    11     9     8   ar
    12    31    29    1
    13     2     1    1
    14     2    28   am
    15    27     1    1
    16     1     4    2
    17    24    19    1
    18    19    20   ar
    19    16     4    1
    20    16    21   ar
    21     4     5    1
    22     5     6   ar
    23     8    13    1
    24     8     7   ar
    25    29    28    1
    26    29    32    1
    27    29    33    1
    28    28    30    1
    29    21    20   ar
    30    21    26    1
    31    20    25    1
    32     6     7   ar
    33     6    11    1
    34     7    12    1
    35    30    34    1
    36    30    36    1
    37    30    35    1
