@<TRIPOS>MOLECULE
GS-380-0.out
 15 14 0 0 0
SMALL
MULLIKEN_CHARGES
****
Gaussian 16 # wB97XD def2tzvp, opt=(calcfc, maxcycles=70, maxstep=8), freq=noraman
@<TRIPOS>ATOM
      1 C          -0.4895    0.9852   -0.1284 C.2     1  UNL1       -0.0855
      2 C           0.8383    0.3815    0.2039 C.2     1  UNL1        0.4241
      3 O           1.5398    0.7992    1.0919 O.2     1  UNL1       -0.4133
      4 C          -1.6198    0.2944   -0.1440 C.2     1  UNL1       -0.0832
      5 H          -2.5743    0.7629   -0.3380 H       1  UNL1        0.1793
      6 CL         -1.7652   -1.3982    0.1852 Cl      1  UNL1       -0.0884
      7 C          -0.4757    2.4681   -0.3597 C.3     1  UNL1       -0.3309
      8 H           0.1643    2.7181   -1.2083 H       1  UNL1        0.1465
      9 H          -1.4788    2.8414   -0.5579 H       1  UNL1        0.1374
     10 H          -0.0755    2.9797    0.5170 H       1  UNL1        0.1452
     11 O           1.1708   -0.6173   -0.6000 O.3     1  UNL1       -0.2673
     12 C           2.4282   -1.2523   -0.3424 C.3     1  UNL1       -0.2007
     13 H           2.5212   -2.0315   -1.0924 H       1  UNL1        0.1501
     14 H           3.2412   -0.5338   -0.4370 H       1  UNL1        0.1432
     15 H           2.4351   -1.6840    0.6574 H       1  UNL1        0.1434
@<TRIPOS>BOND
     1     8     7    1
     2    13    12    1
     3    11    12    1
     4    11     2    1
     5     9     7    1
     6    14    12    1
     7     7     1    1
     8     7    10    1
     9    12    15    1
    10     5     4    1
    11     4     1    2
    12     4     6    1
    13     1     2    1
    14     2     3    2
