@<TRIPOS>MOLECULE
GS-360-0.out
 18 18 0 0 0
SMALL
MULLIKEN_CHARGES
****
Gaussian 16 # wB97XD def2tzvp, opt=(calcfc, maxcycles=70, maxstep=8), freq=noraman
@<TRIPOS>ATOM
      1 C          -1.0555    1.0682   -0.0659 C.2     1  UNL1       -0.0163
      2 C           0.0917    0.7847    0.8819 C.2     1  UNL1        0.3553
      3 O          -0.0600    1.0261    2.0562 O.2     1  UNL1       -0.3537
      4 C          -1.9594    0.1995   -0.4768 C.2     1  UNL1       -0.1576
      5 H          -2.7899    0.4603   -1.1152 H       1  UNL1        0.2024
      6 BR         -1.8933   -1.6129    0.0182 Br      1  UNL1       -0.0267
      7 CL         -1.1476    2.7281   -0.5534 Cl      1  UNL1       -0.0615
      8 C           1.3512    0.2531    0.3138 C.ar    1  UNL1        0.0396
      9 C           2.4109   -0.0250    1.1778 C.ar    1  UNL1       -0.2078
     10 C           3.5993   -0.5213    0.6775 C.ar    1  UNL1       -0.1180
     11 C           3.7392   -0.7406   -0.6884 C.ar    1  UNL1       -0.1189
     12 C           2.6903   -0.4639   -1.5528 C.ar    1  UNL1       -0.1437
     13 C           1.4966    0.0310   -1.0541 C.ar    1  UNL1       -0.1852
     14 H           2.2876    0.1516    2.2380 H       1  UNL1        0.1530
     15 H           4.4199   -0.7388    1.3484 H       1  UNL1        0.1532
     16 H           4.6711   -1.1293   -1.0789 H       1  UNL1        0.1553
     17 H           2.8012   -0.6346   -2.6153 H       1  UNL1        0.1533
     18 H           0.6796    0.2430   -1.7316 H       1  UNL1        0.1773
@<TRIPOS>BOND
     1    17    12    1
     2    18    13    1
     3    12    13   ar
     4    12    11   ar
     5     5     4    1
     6    16    11    1
     7    13     8   ar
     8    11    10   ar
     9     7     1    1
    10     4     1    2
    11     4     6    1
    12     1     2    1
    13     8     2    1
    14     8     9   ar
    15    10     9   ar
    16    10    15    1
    17     2     3    2
    18     9    14    1
