@<TRIPOS>MOLECULE
GS-32-1.out
 38 40 0 0 0
SMALL
MULLIKEN_CHARGES
****
Gaussian 16 # wB97XD def2tzvp, opt=(maxcycles=70, maxstep=1), freq=noraman, scrf=(
@<TRIPOS>ATOM
      1 C           0.2863   -1.0164   -0.4395 C.2     1  UNL1       -0.0466
      2 C          -1.1315   -1.3907   -0.7855 C.2     1  UNL1        0.2047
      3 O          -1.3642   -2.0476   -1.7759 O.2     1  UNL1       -0.3618
      4 C           0.7282    0.2326   -0.2653 C.2     1  UNL1        0.0929
      5 C           2.1156    0.5776    0.1353 C.ar    1  UNL1        0.1055
      6 C           2.8876    1.3958   -0.6852 C.ar    1  UNL1       -0.2177
      7 C           4.1747    1.7479   -0.3115 C.ar    1  UNL1       -0.1525
      8 C           4.6933    1.3064    0.8979 C.ar    1  UNL1       -0.1256
      9 C           3.9208    0.5089    1.7299 C.ar    1  UNL1       -0.1306
     10 C           2.6395    0.1419    1.3489 C.ar    1  UNL1       -0.2421
     11 H           2.4780    1.7536   -1.6220 H       1  UNL1        0.1546
     12 H           4.7715    2.3735   -0.9628 H       1  UNL1        0.1454
     13 H           5.6956    1.5885    1.1939 H       1  UNL1        0.1478
     14 H           4.3155    0.1710    2.6796 H       1  UNL1        0.1452
     15 H           2.0378   -0.4795    2.0001 H       1  UNL1        0.1667
     16 C          -0.1864    1.3822   -0.4908 C.ar    1  UNL1        0.2067
     17 C          -0.3176    2.3633    0.4915 C.ar    1  UNL1       -0.2476
     18 C          -1.1936    3.4189    0.3125 C.ar    1  UNL1       -0.1372
     19 C          -1.9315    3.5223   -0.8608 C.ar    1  UNL1       -0.1257
     20 C          -1.7838    2.5677   -1.8542 C.ar    1  UNL1       -0.1430
     21 C          -0.9144    1.5021   -1.6708 C.ar    1  UNL1       -0.2430
     22 H           0.2567    2.2846    1.4065 H       1  UNL1        0.1601
     23 H          -1.3019    4.1651    1.0890 H       1  UNL1        0.1456
     24 H          -2.6132    4.3514   -1.0012 H       1  UNL1        0.1480
     25 H          -2.3433    2.6506   -2.7771 H       1  UNL1        0.1461
     26 H          -0.7925    0.7646   -2.4538 H       1  UNL1        0.1616
     27 BR          1.4278   -2.5313   -0.3627 Br      1  UNL1       -0.0429
     28 C          -2.2159   -0.9665    0.1429 C.ar    1  UNL1        0.1315
     29 C          -1.9589   -0.6468    1.4732 C.ar    1  UNL1       -0.1941
     30 C          -3.0001   -0.2948    2.3166 C.ar    1  UNL1       -0.1543
     31 C          -4.2986   -0.2442    1.8314 C.ar    1  UNL1       -0.1205
     32 C          -4.5600   -0.5584    0.5031 C.ar    1  UNL1       -0.1172
     33 C          -3.5241   -0.9271   -0.3356 C.ar    1  UNL1       -0.2352
     34 H          -0.9462   -0.6775    1.8530 H       1  UNL1        0.1788
     35 H          -2.7966   -0.0556    3.3521 H       1  UNL1        0.1471
     36 H          -5.1102    0.0414    2.4885 H       1  UNL1        0.1516
     37 H          -5.5727   -0.5143    0.1241 H       1  UNL1        0.1496
     38 H          -3.7145   -1.1759   -1.3713 H       1  UNL1        0.1484
@<TRIPOS>BOND
     1    25    20    1
     2    26    21    1
     3    20    21   ar
     4    20    19   ar
     5     3     2    2
     6    21    16   ar
     7    11     6    1
     8    38    33    1
     9    24    19    1
    10    12     7    1
    11    19    18   ar
    12     2     1    1
    13     2    28    1
    14     6     7   ar
    15     6     5   ar
    16    16     4    1
    17    16    17   ar
    18     1    27    1
    19     1     4    2
    20    33    28   ar
    21    33    32   ar
    22     7     8   ar
    23     4     5    1
    24    37    32    1
    25     5    10   ar
    26    28    29   ar
    27    18    17   ar
    28    18    23    1
    29    17    22    1
    30    32    31   ar
    31     8    13    1
    32     8     9   ar
    33    10     9   ar
    34    10    15    1
    35    29    34    1
    36    29    30   ar
    37     9    14    1
    38    31    30   ar
    39    31    36    1
    40    30    35    1
