@<TRIPOS>MOLECULE
GS-369-0.out
 8 7 0 0 0
SMALL
MULLIKEN_CHARGES
****
Gaussian 16 # wB97XD def2tzvp, opt=(calcfc, maxcycles=70, maxstep=8), freq=noraman
@<TRIPOS>ATOM
      1 C           0.6270    0.8521    0.0000 C.2     1  UNL1       -0.2138
      2 C           1.4173   -0.3817    0.0000 C.2     1  UNL1        0.1908
      3 O           2.6273   -0.3839   -0.0000 O.2     1  UNL1       -0.3727
      4 C          -0.7006    0.9149   -0.0000 C.2     1  UNL1       -0.0316
      5 H          -1.2335    1.8554    0.0000 H       1  UNL1        0.2006
      6 CL         -1.7576   -0.4443   -0.0000 Cl      1  UNL1       -0.0567
      7 H           1.1781    1.7851    0.0000 H       1  UNL1        0.1738
      8 H           0.8537   -1.3287    0.0000 H       1  UNL1        0.1097
@<TRIPOS>BOND
     1     3     2    2
     2     1     4    2
     3     1     2    1
     4     1     7    1
     5     4     5    1
     6     4     6    1
     7     2     8    1
