@<TRIPOS>MOLECULE
GS-356-0.out
 12 11 0 0 0
SMALL
MULLIKEN_CHARGES
****
Gaussian 16 # wB97XD def2tzvp, opt=(calcfc, maxcycles=70, maxstep=8), freq=noraman
@<TRIPOS>ATOM
      1 C          -0.4192    0.7415    0.0513 C.2     1  UNL1       -0.0621
      2 C          -1.0945   -0.5911    0.1204 C.2     1  UNL1        0.4607
      3 O          -0.5258   -1.6056    0.4308 O.2     1  UNL1       -0.3936
      4 C           0.8914    0.9536   -0.0129 C.2     1  UNL1       -0.1297
      5 H           1.2745    1.9619   -0.0669 H       1  UNL1        0.2015
      6 BR          2.2493   -0.3259   -0.0576 Br      1  UNL1        0.0111
      7 CL         -1.4445    2.1450    0.0463 Cl      1  UNL1       -0.0700
      8 O          -2.3746   -0.5201   -0.2025 O.3     1  UNL1       -0.2660
      9 C          -3.1043   -1.7516   -0.1664 C.3     1  UNL1       -0.1968
     10 H          -4.1198   -1.4962   -0.4519 H       1  UNL1        0.1532
     11 H          -2.6770   -2.4634   -0.8711 H       1  UNL1        0.1456
     12 H          -3.0842   -2.1716    0.8380 H       1  UNL1        0.1462
@<TRIPOS>BOND
     1    11     9    1
     2    10     9    1
     3     8     9    1
     4     8     2    1
     5     9    12    1
     6     5     4    1
     7     6     4    1
     8     4     1    2
     9     7     1    1
    10     1     2    1
    11     2     3    2
