@<TRIPOS>MOLECULE
GS-357-0.out
 13 12 0 0 0
SMALL
MULLIKEN_CHARGES
****
Gaussian 16 # wB97XD def2tzvp, opt=(calcfc, maxcycles=70, maxstep=8), freq=noraman
@<TRIPOS>ATOM
      1 C          -0.3935    0.7691    0.0855 C.2     1  UNL1       -0.0542
      2 C          -1.1034   -0.5543    0.2160 C.2     1  UNL1        0.3980
      3 O          -0.5666   -1.4979    0.7744 O.2     1  UNL1       -0.4620
      4 C           0.9139    0.9605   -0.0234 C.2     1  UNL1       -0.1429
      5 H           1.3224    1.9563   -0.1095 H       1  UNL1        0.2008
      6 BR          2.2318   -0.3657   -0.1012 Br      1  UNL1       -0.0072
      7 CL         -1.3995    2.1954    0.0724 Cl      1  UNL1       -0.0853
      8 N          -2.3267   -0.6172   -0.3222 N.am    1  UNL1       -0.2997
      9 C          -3.1101   -1.8324   -0.2728 C.3     1  UNL1       -0.2502
     10 H          -2.7171    0.1974   -0.7615 H       1  UNL1        0.2690
     11 H          -4.0602   -1.6514   -0.7679 H       1  UNL1        0.1512
     12 H          -2.5926   -2.6477   -0.7799 H       1  UNL1        0.1411
     13 H          -3.2965   -2.1305    0.7597 H       1  UNL1        0.1413
@<TRIPOS>BOND
     1    12     9    1
     2    11     9    1
     3    10     8    1
     4     8     9    1
     5     8     2   am
     6     9    13    1
     7     5     4    1
     8     6     4    1
     9     4     1    2
    10     7     1    1
    11     1     2    1
    12     2     3    2
