@<TRIPOS>MOLECULE
GS-398-1.out
 16 15 0 0 0
SMALL
MULLIKEN_CHARGES
****
Gaussian 16 # wB97XD def2tzvp, opt=(calcfc, maxcycles=70, maxstep=1), freq=noraman
@<TRIPOS>ATOM
      1 C          -0.8106   -0.4445   -0.0476 C.2     1  UNL1       -0.0561
      2 C           0.5860   -0.3254   -0.6098 C.2     1  UNL1        0.3131
      3 O           0.7393   -0.5270   -1.8071 O.2     1  UNL1       -0.4725
      4 C          -1.6565    0.5537    0.1342 C.2     1  UNL1       -0.1014
      5 H          -2.6794    0.4182    0.4523 H       1  UNL1        0.1997
      6 CL         -1.1909    2.1941   -0.1178 Cl      1  UNL1       -0.0665
      7 CL         -1.3275   -2.0746    0.2260 Cl      1  UNL1       -0.0673
      8 N           1.5708   -0.0173    0.2451 N.am    1  UNL1       -0.0978
      9 C           2.9279    0.1347   -0.2443 C.3     1  UNL1       -0.2763
     10 C           1.3990    0.1883    1.6703 C.3     1  UNL1       -0.2942
     11 H           2.9380    0.0298   -1.3241 H       1  UNL1        0.1532
     12 H           3.3070    1.1205    0.0309 H       1  UNL1        0.1446
     13 H           3.5726   -0.6254    0.2015 H       1  UNL1        0.1476
     14 H           0.3823   -0.0352    1.9781 H       1  UNL1        0.1714
     15 H           2.0801   -0.4670    2.2155 H       1  UNL1        0.1500
     16 H           1.6273    1.2240    1.9300 H       1  UNL1        0.1523
@<TRIPOS>BOND
     1     3     2    2
     2    11     9    1
     3     2     1    1
     4     2     8   am
     5     9    12    1
     6     9    13    1
     7     9     8    1
     8     6     4    1
     9     1     4    2
    10     1     7    1
    11     4     5    1
    12     8    10    1
    13    10    16    1
    14    10    14    1
    15    10    15    1
