@<TRIPOS>MOLECULE
GS-315-0.out
 13 12 0 0 0
SMALL
MULLIKEN_CHARGES
****
Gaussian 16 # wB97XD def2tzvp, opt=(calcfc, maxcycles=70, maxstep=8), freq=noraman
@<TRIPOS>ATOM
      1 C           0.0042   -0.3686    0.0249 C.2     1  UNL1        0.0001
      2 C           0.0627    1.1318    0.0519 C.2     1  UNL1        0.3306
      3 O          -0.9060    1.7905    0.4012 O.2     1  UNL1       -0.4682
      4 C          -1.1025   -1.0998   -0.0645 C.2     1  UNL1       -0.1236
      5 H          -0.9679   -2.1763   -0.0676 H       1  UNL1        0.1631
      6 C          -2.5131   -0.6318   -0.1778 C.3     1  UNL1       -0.3249
      7 H          -3.0335   -1.2398   -0.9195 H       1  UNL1        0.1370
      8 H          -3.0256   -0.7869    0.7757 H       1  UNL1        0.1442
      9 H          -2.5888    0.4190   -0.4366 H       1  UNL1        0.1413
     10 CL          1.5485   -1.2031    0.1011 Cl      1  UNL1       -0.1260
     11 N           1.2185    1.6958   -0.3344 N.am    1  UNL1       -0.4402
     12 H           1.2886    2.6982   -0.3292 H       1  UNL1        0.2850
     13 H           2.0144    1.1535   -0.6168 H       1  UNL1        0.2816
@<TRIPOS>BOND
     1     7     6    1
     2    13    11    1
     3     9     6    1
     4    11    12    1
     5    11     2   am
     6     6     4    1
     7     6     8    1
     8     5     4    1
     9     4     1    2
    10     1     2    1
    11     1    10    1
    12     2     3    2
