@<TRIPOS>MOLECULE
GS-3-0.out
 40 42 0 0 0
SMALL
MULLIKEN_CHARGES
****
Gaussian 16 # wb97xd def2tzvp opt=(calcfc, maxcycles=100, maxstep=10) freq=noraman
@<TRIPOS>ATOM
      1 C          -0.2957   -1.0204   -0.0277 C.2     1  UNL1        0.0943
      2 C           0.2420   -2.4286   -0.0915 C.2     1  UNL1        0.1735
      3 O           0.0152   -3.2362    0.7983 O.2     1  UNL1       -0.4487
      4 C           0.5127    0.0508   -0.0230 C.2     1  UNL1        0.2465
      5 C          -0.0112    1.4428   -0.0680 C.ar    1  UNL1        0.0349
      6 C           0.4130    2.3799    0.8716 C.ar    1  UNL1       -0.2165
      7 C          -0.0700    3.6784    0.8406 C.ar    1  UNL1       -0.1588
      8 C          -0.9670    4.0642   -0.1459 C.ar    1  UNL1       -0.1226
      9 C          -1.3763    3.1440   -1.1006 C.ar    1  UNL1       -0.1544
     10 C          -0.9033    1.8419   -1.0602 C.ar    1  UNL1       -0.2260
     11 H           1.1196    2.0852    1.6381 H       1  UNL1        0.1536
     12 H           0.2575    4.3918    1.5862 H       1  UNL1        0.1421
     13 H          -1.3399    5.0802   -0.1747 H       1  UNL1        0.1452
     14 H          -2.0657    3.4407   -1.8809 H       1  UNL1        0.1415
     15 H          -1.2266    1.1255   -1.8048 H       1  UNL1        0.1562
     16 C           1.9941   -0.0706    0.0321 C.ar    1  UNL1        0.0163
     17 C           2.6173   -0.8301    1.0191 C.ar    1  UNL1       -0.1966
     18 C           3.9997   -0.9353    1.0600 C.ar    1  UNL1       -0.1531
     19 C           4.7762   -0.2822    0.1148 C.ar    1  UNL1       -0.1251
     20 C           4.1641    0.4877   -0.8659 C.ar    1  UNL1       -0.1536
     21 C           2.7843    0.6016   -0.8996 C.ar    1  UNL1       -0.2092
     22 H           2.0145   -1.3352    1.7636 H       1  UNL1        0.1530
     23 H           4.4702   -1.5257    1.8360 H       1  UNL1        0.1436
     24 H           5.8551   -0.3654    0.1455 H       1  UNL1        0.1462
     25 H           4.7644    1.0035   -1.6046 H       1  UNL1        0.1434
     26 H           2.3109    1.2099   -1.6609 H       1  UNL1        0.1549
     27 C          -1.7756   -0.9538    0.0795 C.ar    1  UNL1        0.1049
     28 C          -2.5756   -1.6135   -0.8511 C.ar    1  UNL1       -0.2131
     29 C          -3.9576   -1.5552   -0.7617 C.ar    1  UNL1       -0.1642
     30 C          -4.5592   -0.8481    0.2697 C.ar    1  UNL1       -0.1233
     31 C          -3.7701   -0.2048    1.2131 C.ar    1  UNL1       -0.1593
     32 C          -2.3886   -0.2586    1.1192 C.ar    1  UNL1       -0.2177
     33 H          -2.1125   -2.1668   -1.6601 H       1  UNL1        0.1433
     34 H          -4.5657   -2.0635   -1.4993 H       1  UNL1        0.1427
     35 H          -5.6385   -0.8037    0.3417 H       1  UNL1        0.1453
     36 H          -4.2319    0.3392    2.0274 H       1  UNL1        0.1417
     37 H          -1.7759    0.2448    1.8563 H       1  UNL1        0.1569
     38 N           0.9204   -2.7442   -1.2080 N.am    1  UNL1       -0.4078
     39 H           1.3430   -3.6535   -1.2885 H       1  UNL1        0.2765
     40 H           1.1382   -2.0481   -1.8978 H       1  UNL1        0.2933
@<TRIPOS>BOND
     1    40    38    1
     2    14     9    1
     3    15    10    1
     4    26    21    1
     5    33    28    1
     6    25    20    1
     7    34    29    1
     8    39    38    1
     9    38     2   am
    10     9    10   ar
    11     9     8   ar
    12    10     5   ar
    13    21    20   ar
    14    21    16   ar
    15    20    19   ar
    16    28    29   ar
    17    28    27   ar
    18    29    30   ar
    19    13     8    1
    20     8     7   ar
    21     2     1    1
    22     2     3    2
    23     5     4    1
    24     5     6   ar
    25     1     4    2
    26     1    27    1
    27     4    16    1
    28    16    17   ar
    29    27    32   ar
    30    19    24    1
    31    19    18   ar
    32    30    35    1
    33    30    31   ar
    34     7     6   ar
    35     7    12    1
    36     6    11    1
    37    17    18   ar
    38    17    22    1
    39    18    23    1
    40    32    31   ar
    41    32    37    1
    42    31    36    1
