@<TRIPOS>MOLECULE
GS-381-0.out
 16 15 0 0 0
SMALL
MULLIKEN_CHARGES
****
Gaussian 16 # wB97XD def2tzvp, opt=(calcfc, maxcycles=70, maxstep=8), freq=noraman
@<TRIPOS>ATOM
      1 C           0.5359    0.9612   -0.1339 C.2     1  UNL1       -0.1082
      2 C          -0.7965    0.3837    0.2592 C.2     1  UNL1        0.3677
      3 O          -1.3460    0.7370    1.2953 O.2     1  UNL1       -0.4854
      4 C           1.6512    0.2495   -0.1777 C.2     1  UNL1       -0.0925
      5 H           2.6124    0.6826   -0.4156 H       1  UNL1        0.1776
      6 CL          1.7529   -1.4491    0.1699 Cl      1  UNL1       -0.1010
      7 C           0.5384    2.4377   -0.3984 C.3     1  UNL1       -0.3268
      8 H           0.1670    2.9718    0.4778 H       1  UNL1        0.1441
      9 H           1.5397    2.7965   -0.6313 H       1  UNL1        0.1352
     10 H          -0.1230    2.6766   -1.2341 H       1  UNL1        0.1437
     11 N          -1.3423   -0.4795   -0.6056 N.am    1  UNL1       -0.3107
     12 C          -2.6212   -1.1107   -0.3611 C.3     1  UNL1       -0.2523
     13 H          -0.8204   -0.7333   -1.4255 H       1  UNL1        0.2824
     14 H          -2.8749   -1.7255   -1.2206 H       1  UNL1        0.1494
     15 H          -2.5831   -1.7412    0.5288 H       1  UNL1        0.1382
     16 H          -3.3990   -0.3597   -0.2195 H       1  UNL1        0.1385
@<TRIPOS>BOND
     1    13    11    1
     2    10     7    1
     3    14    12    1
     4     9     7    1
     5    11    12    1
     6    11     2   am
     7     5     4    1
     8     7     1    1
     9     7     8    1
    10    12    16    1
    11    12    15    1
    12     4     1    2
    13     4     6    1
    14     1     2    1
    15     2     3    2
