@<TRIPOS>MOLECULE
GS-365-0.out
 23 23 0 0 0
SMALL
MULLIKEN_CHARGES
****
Gaussian 16 # wB97XD def2tzvp, opt=(calcfc, maxcycles=70, maxstep=8), freq=noraman
@<TRIPOS>ATOM
      1 C          -0.3439    0.4356   -0.1356 C.2     1  UNL1       -0.0851
      2 C          -1.2008   -0.7992   -0.2695 C.2     1  UNL1        0.2977
      3 O          -1.4907   -1.2595   -1.3656 O.2     1  UNL1       -0.4698
      4 C          -0.8854    1.6464   -0.1254 C.2     1  UNL1       -0.0541
      5 H          -0.3060    2.5577   -0.0954 H       1  UNL1        0.1847
      6 CL         -2.5913    1.9290   -0.1733 Cl      1  UNL1       -0.0854
      7 C           1.1215    0.2349   -0.0554 C.ar    1  UNL1        0.1944
      8 C           1.9210    1.0810    0.7137 C.ar    1  UNL1       -0.2536
      9 C           3.2928    0.8952    0.7696 C.ar    1  UNL1       -0.1395
     10 C           3.8864   -0.1453    0.0692 C.ar    1  UNL1       -0.1397
     11 C           3.0974   -1.0023   -0.6844 C.ar    1  UNL1       -0.1454
     12 C           1.7255   -0.8171   -0.7449 C.ar    1  UNL1       -0.2280
     13 H           1.4656    1.8762    1.2901 H       1  UNL1        0.1614
     14 H           3.8983    1.5588    1.3737 H       1  UNL1        0.1467
     15 H           4.9576   -0.2928    0.1179 H       1  UNL1        0.1477
     16 H           3.5513   -1.8197   -1.2301 H       1  UNL1        0.1464
     17 H           1.1192   -1.4851   -1.3434 H       1  UNL1        0.1517
     18 N          -1.5750   -1.3534    0.8889 N.am    1  UNL1       -0.2878
     19 C          -2.3820   -2.5538    0.9451 C.3     1  UNL1       -0.2554
     20 H          -1.3124   -0.8984    1.7456 H       1  UNL1        0.2831
     21 H          -1.8946   -3.3678    0.4079 H       1  UNL1        0.1404
     22 H          -2.5064   -2.8398    1.9862 H       1  UNL1        0.1503
     23 H          -3.3646   -2.3852    0.5020 H       1  UNL1        0.1393
@<TRIPOS>BOND
     1     3     2    2
     2    17    12    1
     3    16    11    1
     4    12    11   ar
     5    12     7   ar
     6    11    10   ar
     7     2     1    1
     8     2    18   am
     9     6     4    1
    10     1     4    2
    11     1     7    1
    12     4     5    1
    13     7     8   ar
    14    10    15    1
    15    10     9   ar
    16    21    19    1
    17    23    19    1
    18     8     9   ar
    19     8    13    1
    20     9    14    1
    21    18    19    1
    22    18    20    1
    23    19    22    1
