@<TRIPOS>MOLECULE
GS-337-0.out
 11 10 0 0 0
SMALL
MULLIKEN_CHARGES
****
Gaussian 16 # wB97XD def2tzvp, opt=(calcfc, maxcycles=70, maxstep=8), freq=noraman
@<TRIPOS>ATOM
      1 C           1.1664    0.4407   -0.0000 C.2     1  UNL1       -0.0619
      2 C           1.4615   -1.0062   -0.0000 C.2     1  UNL1        0.1676
      3 O           2.5877   -1.4452    0.0000 O.2     1  UNL1       -0.3687
      4 C          -0.0799    0.9098    0.0000 C.2     1  UNL1       -0.0731
      5 H          -0.2921    1.9697    0.0000 H       1  UNL1        0.1894
      6 BR         -1.6650   -0.1099    0.0000 Br      1  UNL1       -0.0435
      7 C           2.3397    1.3744   -0.0000 C.3     1  UNL1       -0.3487
      8 H           2.9622    1.1985   -0.8787 H       1  UNL1        0.1420
      9 H           2.0183    2.4143   -0.0000 H       1  UNL1        0.1393
     10 H           2.9622    1.1985    0.8787 H       1  UNL1        0.1420
     11 H           0.5950   -1.6856   -0.0000 H       1  UNL1        0.1157
@<TRIPOS>BOND
     1     8     7    1
     2    11     2    1
     3     2     1    1
     4     2     3    2
     5     7     9    1
     6     7     1    1
     7     7    10    1
     8     1     4    2
     9     6     4    1
    10     4     5    1
