@<TRIPOS>MOLECULE
GS-333-0.out
 13 12 0 0 0
SMALL
MULLIKEN_CHARGES
****
Gaussian 16 # wB97XD def2tzvp, opt=(calcfc, maxcycles=70, maxstep=8), freq=noraman
@<TRIPOS>ATOM
      1 C          -0.3563    1.4921   -0.4286 C.2     1  UNL1       -0.2720
      2 C          -1.5000    0.6485    0.0343 C.2     1  UNL1        0.4169
      3 O          -2.2965    1.1004    0.8485 O.2     1  UNL1       -0.4925
      4 C           0.9356    1.2151   -0.4164 C.2     1  UNL1       -0.1149
      5 H           1.6810    1.9368   -0.7158 H       1  UNL1        0.1977
      6 BR          1.7131   -0.4127    0.1450 Br      1  UNL1       -0.0590
      7 H          -0.6395    2.4944   -0.7311 H       1  UNL1        0.1820
      8 N          -1.6141   -0.5716   -0.5040 N.am    1  UNL1       -0.3149
      9 C          -2.6737   -1.4814   -0.1258 C.3     1  UNL1       -0.2495
     10 H          -0.9271   -0.8740   -1.1716 H       1  UNL1        0.2790
     11 H          -2.5776   -2.3895   -0.7150 H       1  UNL1        0.1495
     12 H          -2.6100   -1.7359    0.9332 H       1  UNL1        0.1392
     13 H          -3.6506   -1.0356   -0.3159 H       1  UNL1        0.1385
@<TRIPOS>BOND
     1    10     8    1
     2     7     1    1
     3     5     4    1
     4    11     9    1
     5     8     9    1
     6     8     2   am
     7     1     4    2
     8     1     2    1
     9     4     6    1
    10    13     9    1
    11     9    12    1
    12     2     3    2
