@<TRIPOS>MOLECULE
GS-388-0.out
 12 11 0 0 0
SMALL
MULLIKEN_CHARGES
****
Gaussian 16 # wB97XD def2tzvp, opt=(calcfc, maxcycles=70, maxstep=8), freq=noraman
@<TRIPOS>ATOM
      1 C          -0.2438    0.2887    0.0118 C.2     1  UNL1       -0.0925
      2 C           0.6285   -0.9088    0.2364 C.2     1  UNL1        0.4325
      3 O           0.3683   -1.7702    1.0342 O.2     1  UNL1       -0.3910
      4 C           0.1339    1.5583   -0.0293 C.2     1  UNL1       -0.0745
      5 H          -0.5790    2.3616   -0.1455 H       1  UNL1        0.2029
      6 CL          1.7531    2.1049    0.1414 Cl      1  UNL1       -0.0448
      7 BR         -2.0861   -0.1093   -0.1156 Br      1  UNL1       -0.0243
      8 O           1.6873   -0.8996   -0.5521 O.3     1  UNL1       -0.2596
      9 C           2.6152   -1.9805   -0.3858 C.3     1  UNL1       -0.1971
     10 H           3.4057   -1.7971   -1.1062 H       1  UNL1        0.1536
     11 H           3.0135   -1.9802    0.6275 H       1  UNL1        0.1474
     12 H           2.1242   -2.9306   -0.5894 H       1  UNL1        0.1476
@<TRIPOS>BOND
     1    10     9    1
     2    12     9    1
     3     8     9    1
     4     8     2    1
     5     9    11    1
     6     5     4    1
     7     7     1    1
     8     4     1    2
     9     4     6    1
    10     1     2    1
    11     2     3    2
