@<TRIPOS>MOLECULE
GS-323-0.out
 20 20 0 0 0
SMALL
MULLIKEN_CHARGES
****
Gaussian 16 # wB97XD def2tzvp, opt=(calcfc, maxcycles=70, maxstep=8), freq=noraman
@<TRIPOS>ATOM
      1 C          -0.0378    0.1013    0.0171 C.2     1  UNL1       -0.0780
      2 C          -0.4965    1.5278   -0.1722 C.2     1  UNL1        0.2578
      3 O          -0.6928    2.2621    0.7824 O.2     1  UNL1       -0.4424
      4 C          -0.9024   -0.8874    0.1967 C.2     1  UNL1       -0.0936
      5 H          -0.6044   -1.9057    0.3977 H       1  UNL1        0.1903
      6 BR         -2.7751   -0.6746    0.1425 Br      1  UNL1       -0.0528
      7 C           1.4264   -0.1307    0.0301 C.ar    1  UNL1        0.1967
      8 C           2.2867    0.8352    0.5528 C.ar    1  UNL1       -0.2228
      9 C           3.6548    0.6172    0.5808 C.ar    1  UNL1       -0.1440
     10 C           4.1849   -0.5640    0.0822 C.ar    1  UNL1       -0.1419
     11 C           3.3379   -1.5245   -0.4521 C.ar    1  UNL1       -0.1348
     12 C           1.9699   -1.3083   -0.4839 C.ar    1  UNL1       -0.2543
     13 H           1.8820    1.7562    0.9531 H       1  UNL1        0.1532
     14 H           4.3086    1.3740    0.9951 H       1  UNL1        0.1471
     15 H           5.2541   -0.7318    0.1018 H       1  UNL1        0.1482
     16 H           3.7440   -2.4422   -0.8579 H       1  UNL1        0.1474
     17 H           1.3217   -2.0508   -0.9315 H       1  UNL1        0.1618
     18 N          -0.6270    1.9124   -1.4494 N.am    1  UNL1       -0.4210
     19 H          -0.9165    2.8530   -1.6589 H       1  UNL1        0.2844
     20 H          -0.4730    1.2730   -2.2082 H       1  UNL1        0.2984
@<TRIPOS>BOND
     1    20    18    1
     2    19    18    1
     3    18     2   am
     4    17    12    1
     5    16    11    1
     6    12    11   ar
     7    12     7   ar
     8    11    10   ar
     9     2     1    1
    10     2     3    2
    11     1     7    1
    12     1     4    2
    13     7     8   ar
    14    10    15    1
    15    10     9   ar
    16     6     4    1
    17     4     5    1
    18     8     9   ar
    19     8    13    1
    20     9    14    1
