@<TRIPOS>MOLECULE
GS-375-0.out
 20 20 0 0 0
SMALL
MULLIKEN_CHARGES
****
Gaussian 16 # wB97XD def2tzvp, opt=(calcfc, maxcycles=70, maxstep=8), freq=noraman
@<TRIPOS>ATOM
      1 C           2.4902    1.0113    0.5712 C.2     1  UNL1       -0.2938
      2 C           1.0481    1.2028    0.2364 C.2     1  UNL1        0.4660
      3 O           0.6680    2.2918   -0.1606 O.2     1  UNL1       -0.4705
      4 C           3.3034    0.0170    0.2522 C.2     1  UNL1       -0.0661
      5 H           4.3547    0.0400    0.5000 H       1  UNL1        0.1975
      6 CL          2.8611   -1.4165   -0.6083 Cl      1  UNL1       -0.0791
      7 H           2.9380    1.8645    1.0665 H       1  UNL1        0.1825
      8 N           0.2467    0.1284    0.4362 N.am    1  UNL1       -0.2769
      9 C          -1.1335   -0.0073    0.2057 C.ar    1  UNL1        0.3068
     10 C          -1.9166    0.9756   -0.3954 C.ar    1  UNL1       -0.2922
     11 C          -3.2717    0.7439   -0.5890 C.ar    1  UNL1       -0.1059
     12 C          -3.8589   -0.4479   -0.1960 C.ar    1  UNL1       -0.1855
     13 C          -3.0735   -1.4251    0.4009 C.ar    1  UNL1       -0.0978
     14 C          -1.7226   -1.2088    0.6014 C.ar    1  UNL1       -0.2990
     15 H           0.6962   -0.6903    0.8126 H       1  UNL1        0.2659
     16 H          -1.4694    1.9059   -0.7044 H       1  UNL1        0.1639
     17 H          -3.8718    1.5139   -1.0573 H       1  UNL1        0.1456
     18 H          -4.9164   -0.6159   -0.3524 H       1  UNL1        0.1444
     19 H          -3.5135   -2.3632    0.7143 H       1  UNL1        0.1474
     20 H          -1.1163   -1.9761    1.0686 H       1  UNL1        0.1465
@<TRIPOS>BOND
     1    17    11    1
     2    16    10    1
     3     6     4    1
     4    11    10   ar
     5    11    12   ar
     6    10     9   ar
     7    18    12    1
     8    12    13   ar
     9     3     2    2
    10     9     8    1
    11     9    14   ar
    12     2     8   am
    13     2     1    1
    14     4     5    1
    15     4     1    2
    16    13    14   ar
    17    13    19    1
    18     8    15    1
    19     1     7    1
    20    14    20    1
