@<TRIPOS>MOLECULE
GS-341-0.out
 16 15 0 0 0
SMALL
MULLIKEN_CHARGES
****
Gaussian 16 # wB97XD def2tzvp, opt=(calcfc, maxcycles=70, maxstep=8), freq=noraman
@<TRIPOS>ATOM
      1 C          -0.4517    1.2459   -0.1327 C.2     1  UNL1       -0.1147
      2 C          -1.3503    0.1126    0.2835 C.2     1  UNL1        0.3777
      3 O          -1.8883    0.1154    1.3834 O.2     1  UNL1       -0.4824
      4 C           0.8614    1.1286   -0.2412 C.2     1  UNL1       -0.1337
      5 H           1.5056    1.9573   -0.4971 H       1  UNL1        0.1815
      6 BR          1.8331   -0.4665    0.0691 Br      1  UNL1       -0.0742
      7 C          -1.1456    2.5593   -0.3463 C.3     1  UNL1       -0.3323
      8 H          -1.6781    2.8479    0.5617 H       1  UNL1        0.1460
      9 H          -0.4373    3.3448   -0.6046 H       1  UNL1        0.1369
     10 H          -1.8833    2.4735   -1.1472 H       1  UNL1        0.1449
     11 N          -1.5499   -0.8409   -0.6341 N.am    1  UNL1       -0.3080
     12 C          -2.3882   -1.9927   -0.3797 C.3     1  UNL1       -0.2523
     13 H          -1.0478   -0.7831   -1.5025 H       1  UNL1        0.2829
     14 H          -3.3880   -1.6781   -0.0801 H       1  UNL1        0.1391
     15 H          -2.4593   -2.5787   -1.2922 H       1  UNL1        0.1498
     16 H          -1.9690   -2.6158    0.4122 H       1  UNL1        0.1387
@<TRIPOS>BOND
     1    13    11    1
     2    15    12    1
     3    10     7    1
     4    11    12    1
     5    11     2   am
     6     9     7    1
     7     5     4    1
     8    12    14    1
     9    12    16    1
    10     7     1    1
    11     7     8    1
    12     4     1    2
    13     4     6    1
    14     1     2    1
    15     2     3    2
