@<TRIPOS>MOLECULE
GS-313-0.out
 11 10 0 0 0
SMALL
MULLIKEN_CHARGES
****
Gaussian 16 # wB97XD def2tzvp, opt=(calcfc, maxcycles=70, maxstep=8), freq=noraman
@<TRIPOS>ATOM
      1 C           0.2107   -0.0594   -0.0084 C.2     1  UNL1        0.0409
      2 C          -0.2048    1.3604   -0.0708 C.2     1  UNL1        0.1542
      3 O          -1.3345    1.7555    0.0762 O.2     1  UNL1       -0.3617
      4 C          -0.5718   -1.1389    0.0066 C.2     1  UNL1       -0.1116
      5 H          -0.0752   -2.1030    0.0423 H       1  UNL1        0.1702
      6 C          -2.0588   -1.1809   -0.0254 C.3     1  UNL1       -0.3258
      7 H          -2.3812   -1.9439   -0.7359 H       1  UNL1        0.1429
      8 H          -2.4282   -1.4913    0.9565 H       1  UNL1        0.1503
      9 H          -2.5063   -0.2249   -0.2750 H       1  UNL1        0.1438
     10 CL          1.9525   -0.2490    0.0149 Cl      1  UNL1       -0.1210
     11 H           0.6233    2.0647   -0.2632 H       1  UNL1        0.1178
@<TRIPOS>BOND
     1     7     6    1
     2     9     6    1
     3    11     2    1
     4     2     1    1
     5     2     3    2
     6     6     4    1
     7     6     8    1
     8     1     4    2
     9     1    10    1
    10     4     5    1
