@<TRIPOS>MOLECULE
GS-392-0.out
 18 18 0 0 0
SMALL
MULLIKEN_CHARGES
****
Gaussian 16 # wB97XD def2tzvp, opt=(calcfc, maxcycles=70, maxstep=8), freq=noraman
@<TRIPOS>ATOM
      1 C          -1.1866    0.2591    0.0812 C.2     1  UNL1       -0.0931
      2 C           0.0109    0.0787    0.9863 C.2     1  UNL1        0.3537
      3 O          -0.1587    0.1058    2.1828 O.2     1  UNL1       -0.3555
      4 C          -1.5861    1.4001   -0.4479 C.2     1  UNL1       -0.0849
      5 H          -2.4735    1.5073   -1.0537 H       1  UNL1        0.2022
      6 CL         -0.7014    2.8633   -0.2128 Cl      1  UNL1       -0.0626
      7 BR         -2.1740   -1.3238   -0.2077 Br      1  UNL1       -0.0155
      8 C           1.3329   -0.1463    0.3570 C.ar    1  UNL1        0.0398
      9 C           2.4456   -0.3198    1.1808 C.ar    1  UNL1       -0.2085
     10 C           3.6926   -0.5308    0.6244 C.ar    1  UNL1       -0.1189
     11 C           3.8375   -0.5718   -0.7579 C.ar    1  UNL1       -0.1182
     12 C           2.7351   -0.4015   -1.5823 C.ar    1  UNL1       -0.1471
     13 C           1.4839   -0.1882   -1.0275 C.ar    1  UNL1       -0.1828
     14 H           2.3173   -0.2859    2.2545 H       1  UNL1        0.1529
     15 H           4.5550   -0.6639    1.2642 H       1  UNL1        0.1530
     16 H           4.8151   -0.7373   -1.1925 H       1  UNL1        0.1552
     17 H           2.8496   -0.4340   -2.6576 H       1  UNL1        0.1530
     18 H           0.6266   -0.0538   -1.6743 H       1  UNL1        0.1775
@<TRIPOS>BOND
     1    17    12    1
     2    18    13    1
     3    12    13   ar
     4    12    11   ar
     5    16    11    1
     6     5     4    1
     7    13     8   ar
     8    11    10   ar
     9     4     6    1
    10     4     1    2
    11     7     1    1
    12     1     2    1
    13     8     2    1
    14     8     9   ar
    15    10     9   ar
    16    10    15    1
    17     2     3    2
    18     9    14    1
