@<TRIPOS>MOLECULE
GS-387-0.out
 10 9 0 0 0
SMALL
MULLIKEN_CHARGES
****
Gaussian 16 # wB97XD def2tzvp, opt=(calcfc, maxcycles=70, maxstep=8), freq=noraman
@<TRIPOS>ATOM
      1 C           0.0423   -0.1161   -0.0027 C.2     1  UNL1       -0.0721
      2 C           0.4472    1.3337   -0.1134 C.2     1  UNL1        0.3128
      3 O           0.2194    1.9633   -1.1297 O.2     1  UNL1       -0.4367
      4 C           0.8561   -1.1575   -0.0133 C.2     1  UNL1       -0.0854
      5 H           0.5102   -2.1801    0.0163 H       1  UNL1        0.2023
      6 CL          2.5714   -1.0014   -0.1052 Cl      1  UNL1       -0.0603
      7 BR         -1.8246   -0.3945    0.0566 Br      1  UNL1       -0.0231
      8 N           1.0360    1.8386    0.9771 N.am    1  UNL1       -0.4326
      9 H           1.3470    2.7956    0.9723 H       1  UNL1        0.2907
     10 H           1.2090    1.2776    1.7920 H       1  UNL1        0.3043
@<TRIPOS>BOND
     1     3     2    2
     2     2     1    1
     3     2     8   am
     4     6     4    1
     5     4     1    2
     6     4     5    1
     7     1     7    1
     8     9     8    1
     9     8    10    1
