@<TRIPOS>MOLECULE
GS-373-1.out
 13 12 0 0 0
SMALL
MULLIKEN_CHARGES
****
Gaussian 16 # wB97XD def2tzvp, opt=(calcfc, maxcycles=70, maxstep=1), freq=noraman
@<TRIPOS>ATOM
      1 C          -0.3957    1.2970   -0.3519 C.2     1  UNL1       -0.2746
      2 C           0.9110    0.6662   -0.0020 C.2     1  UNL1        0.4160
      3 O           1.7616    1.3309    0.5801 O.2     1  UNL1       -0.4995
      4 C          -1.6233    0.8111   -0.2622 C.2     1  UNL1       -0.0650
      5 H          -2.4918    1.4118   -0.4902 H       1  UNL1        0.1955
      6 CL         -2.0484   -0.7893    0.2416 Cl      1  UNL1       -0.0850
      7 H          -0.3110    2.3377   -0.6414 H       1  UNL1        0.1789
      8 N           1.1097   -0.6058   -0.3703 N.am    1  UNL1       -0.3104
      9 C           2.3424   -1.3037   -0.0768 C.3     1  UNL1       -0.2506
     10 H           0.3794   -1.0942   -0.8567 H       1  UNL1        0.2695
     11 H           2.2736   -2.3115   -0.4777 H       1  UNL1        0.1488
     12 H           3.1935   -0.7967   -0.5336 H       1  UNL1        0.1379
     13 H           2.5115   -1.3598    0.9994 H       1  UNL1        0.1385
@<TRIPOS>BOND
     1    10     8    1
     2     7     1    1
     3    12     9    1
     4     5     4    1
     5    11     9    1
     6     8     9    1
     7     8     2   am
     8     1     4    2
     9     1     2    1
    10     4     6    1
    11     9    13    1
    12     2     3    2
