@<TRIPOS>MOLECULE
GS-384-0.out
 21 21 0 0 0
SMALL
MULLIKEN_CHARGES
****
Gaussian 16 # wB97XD def2tzvp, opt=(calcfc, maxcycles=70, maxstep=8), freq=noraman
@<TRIPOS>ATOM
      1 C           1.6833   -0.6278    0.4381 C.2     1  UNL1       -0.1163
      2 C           0.5294   -0.9245   -0.4836 C.2     1  UNL1        0.3690
      3 O           0.7212   -1.6270   -1.4530 O.2     1  UNL1       -0.3819
      4 C           2.3440    0.5160    0.3957 C.2     1  UNL1       -0.0901
      5 H           3.2042    0.7309    1.0133 H       1  UNL1        0.1803
      6 CL          1.9249    1.8220   -0.6699 Cl      1  UNL1       -0.1013
      7 C           2.0714   -1.7440    1.3617 C.3     1  UNL1       -0.3241
      8 H           2.3122   -2.6398    0.7861 H       1  UNL1        0.1511
      9 H           2.9339   -1.4715    1.9678 H       1  UNL1        0.1395
     10 H           1.2415   -1.9942    2.0268 H       1  UNL1        0.1481
     11 C          -0.8164   -0.3941   -0.1428 C.ar    1  UNL1        0.0376
     12 C          -1.8783   -0.6376   -1.0138 C.ar    1  UNL1       -0.2158
     13 C          -3.1426   -0.1638   -0.7174 C.ar    1  UNL1       -0.1177
     14 C          -3.3580    0.5520    0.4549 C.ar    1  UNL1       -0.1245
     15 C          -2.3076    0.7944    1.3278 C.ar    1  UNL1       -0.1440
     16 C          -1.0385    0.3249    1.0295 C.ar    1  UNL1       -0.1900
     17 H          -1.6964   -1.1982   -1.9211 H       1  UNL1        0.1493
     18 H          -3.9638   -0.3506   -1.3971 H       1  UNL1        0.1510
     19 H          -4.3488    0.9216    0.6868 H       1  UNL1        0.1531
     20 H          -2.4763    1.3507    2.2405 H       1  UNL1        0.1509
     21 H          -0.2192    0.5195    1.7096 H       1  UNL1        0.1757
@<TRIPOS>BOND
     1    17    12    1
     2     3     2    2
     3    18    13    1
     4    12    13   ar
     5    12    11   ar
     6    13    14   ar
     7     6     4    1
     8     2    11    1
     9     2     1    1
    10    11    16   ar
    11     4     1    2
    12     4     5    1
    13     1     7    1
    14    14    19    1
    15    14    15   ar
    16     8     7    1
    17    16    15   ar
    18    16    21    1
    19    15    20    1
    20     7     9    1
    21     7    10    1
