@<TRIPOS>MOLECULE
GS-318-0.out
 19 18 0 0 0
SMALL
MULLIKEN_CHARGES
****
Gaussian 16 # wB97XD def2tzvp, opt=(calcfc, maxcycles=70, maxstep=8), freq=noraman
@<TRIPOS>ATOM
      1 C           0.9525    0.0812   -0.0734 C.2     1  UNL1       -0.0183
      2 C          -0.3865   -0.4467   -0.5206 C.2     1  UNL1        0.2959
      3 O          -0.4487   -1.0874   -1.5638 O.2     1  UNL1       -0.4823
      4 C           1.3517    1.3402   -0.1416 C.2     1  UNL1       -0.1611
      5 H           2.3763    1.5695    0.1299 H       1  UNL1        0.1587
      6 C           0.4918    2.4863   -0.5622 C.3     1  UNL1       -0.3438
      7 H           0.3876    3.1965    0.2615 H       1  UNL1        0.1441
      8 H           0.9606    3.0218   -1.3898 H       1  UNL1        0.1505
      9 H          -0.5035    2.1722   -0.8740 H       1  UNL1        0.1421
     10 CL          2.0391   -1.1856    0.4382 Cl      1  UNL1       -0.1137
     11 N          -1.4524   -0.1729    0.2514 N.am    1  UNL1       -0.1117
     12 C          -1.4020    0.4966    1.5369 C.3     1  UNL1       -0.3025
     13 C          -2.7742   -0.5920   -0.1742 C.3     1  UNL1       -0.2779
     14 H          -0.3770    0.6216    1.8701 H       1  UNL1        0.1712
     15 H          -1.8784    1.4777    1.4745 H       1  UNL1        0.1543
     16 H          -1.9384   -0.1030    2.2743 H       1  UNL1        0.1528
     17 H          -2.7319   -0.9396   -1.2011 H       1  UNL1        0.1510
     18 H          -3.1414   -1.3978    0.4655 H       1  UNL1        0.1479
     19 H          -3.4618    0.2521   -0.1010 H       1  UNL1        0.1427
@<TRIPOS>BOND
     1     3     2    2
     2     8     6    1
     3    17    13    1
     4     9     6    1
     5     6     4    1
     6     6     7    1
     7     2     1    1
     8     2    11   am
     9    13    19    1
    10    13    11    1
    11    13    18    1
    12     4     1    2
    13     4     5    1
    14     1    10    1
    15    11    12    1
    16    15    12    1
    17    12    14    1
    18    12    16    1
