@<TRIPOS>MOLECULE
GS-311-1.out
 23 23 0 0 0
SMALL
MULLIKEN_CHARGES
****
Gaussian 16 # wB97XD def2tzvp, opt=(calcfc, maxcycles=70, maxstep=1), freq=noraman
@<TRIPOS>ATOM
      1 C          -1.8630    0.4048    0.0379 C.2     1  UNL1       -0.1125
      2 C          -0.4302    0.7928   -0.2017 C.2     1  UNL1        0.4650
      3 O          -0.1619    1.8631   -0.7183 O.2     1  UNL1       -0.4612
      4 C          -2.8242    1.2503    0.3911 C.2     1  UNL1       -0.1165
      5 H          -3.8215    0.8423    0.5146 H       1  UNL1        0.1687
      6 C          -2.6932    2.7106    0.6651 C.3     1  UNL1       -0.3422
      7 H          -3.2213    2.9495    1.5899 H       1  UNL1        0.1409
      8 H          -1.6610    3.0394    0.7358 H       1  UNL1        0.1395
      9 H          -3.1799    3.2759   -0.1340 H       1  UNL1        0.1470
     10 BR         -2.3046   -1.4412   -0.2029 Br      1  UNL1       -0.0965
     11 N           0.4893   -0.1119    0.2139 N.am    1  UNL1       -0.2673
     12 C           1.8910   -0.0588    0.1211 C.ar    1  UNL1        0.3059
     13 C           2.5918   -1.1891    0.5448 C.ar    1  UNL1       -0.2971
     14 C           3.9730   -1.2179    0.4905 C.ar    1  UNL1       -0.1001
     15 C           4.6788   -0.1220    0.0119 C.ar    1  UNL1       -0.1832
     16 C           3.9816    0.9993   -0.4072 C.ar    1  UNL1       -0.1115
     17 C           2.5948    1.0445   -0.3566 C.ar    1  UNL1       -0.2860
     18 H           0.1226   -0.9582    0.6199 H       1  UNL1        0.2577
     19 H           2.0489   -2.0499    0.9174 H       1  UNL1        0.1471
     20 H           4.4991   -2.1035    0.8232 H       1  UNL1        0.1474
     21 H           5.7598   -0.1440   -0.0321 H       1  UNL1        0.1445
     22 H           4.5189    1.8619   -0.7809 H       1  UNL1        0.1454
     23 H           2.0634    1.9229   -0.6828 H       1  UNL1        0.1650
@<TRIPOS>BOND
     1    22    16    1
     2     3     2    2
     3    23    17    1
     4    16    17   ar
     5    16    15   ar
     6    17    12   ar
     7    10     1    1
     8     2     1    1
     9     2    11   am
    10     9     6    1
    11    21    15    1
    12    15    14   ar
    13     1     4    2
    14    12    11    1
    15    12    13   ar
    16    11    18    1
    17     4     5    1
    18     4     6    1
    19    14    13   ar
    20    14    20    1
    21    13    19    1
    22     6     8    1
    23     6     7    1
