@<TRIPOS>MOLECULE
GS-304-0.out
 24 24 0 0 0
SMALL
MULLIKEN_CHARGES
****
Gaussian 16 # wB97XD def2tzvp, opt=(calcfc, maxcycles=70, maxstep=8), freq=noraman
@<TRIPOS>ATOM
      1 C          -1.9757    0.0140    0.2285 C.2     1  UNL1       -0.0422
      2 C          -0.8210    0.8920   -0.1540 C.2     1  UNL1        0.3090
      3 O          -1.0341    2.0192   -0.5585 O.2     1  UNL1       -0.3990
      4 C          -2.1948   -1.1701   -0.3392 C.2     1  UNL1       -0.1588
      5 H          -3.0895   -1.7049   -0.0304 H       1  UNL1        0.1348
      6 C          -1.3800   -1.8566   -1.3882 C.3     1  UNL1       -0.3380
      7 H          -0.9571   -2.7846   -0.9941 H       1  UNL1        0.1376
      8 H          -2.0183   -2.1333   -2.2303 H       1  UNL1        0.1438
      9 H          -0.5630   -1.2460   -1.7682 H       1  UNL1        0.1359
     10 C          -2.9118    0.6222    1.2353 C.3     1  UNL1       -0.3469
     11 H          -3.3058    1.5719    0.8688 H       1  UNL1        0.1370
     12 H          -3.7464   -0.0471    1.4412 H       1  UNL1        0.1297
     13 H          -2.3937    0.8283    2.1755 H       1  UNL1        0.1360
     14 C           0.5768    0.3970    0.0139 C.ar    1  UNL1        0.0461
     15 C           1.6136    1.0725   -0.6283 C.ar    1  UNL1       -0.2015
     16 C           2.9218    0.6503   -0.4750 C.ar    1  UNL1       -0.1274
     17 C           3.2078   -0.4414    0.3361 C.ar    1  UNL1       -0.1279
     18 C           2.1829   -1.1114    0.9880 C.ar    1  UNL1       -0.1329
     19 C           0.8702   -0.6987    0.8221 C.ar    1  UNL1       -0.1997
     20 H           1.3785    1.9249   -1.2522 H       1  UNL1        0.1468
     21 H           3.7217    1.1707   -0.9858 H       1  UNL1        0.1486
     22 H           4.2323   -0.7695    0.4591 H       1  UNL1        0.1510
     23 H           2.4055   -1.9583    1.6240 H       1  UNL1        0.1486
     24 H           0.0698   -1.2254    1.3249 H       1  UNL1        0.1695
@<TRIPOS>BOND
     1     8     6    1
     2     9     6    1
     3     6     7    1
     4     6     4    1
     5    20    15    1
     6    21    16    1
     7    15    16   ar
     8    15    14   ar
     9     3     2    2
    10    16    17   ar
    11     4     5    1
    12     4     1    2
    13     2    14    1
    14     2     1    1
    15    14    19   ar
    16     1    10    1
    17    17    22    1
    18    17    18   ar
    19    19    18   ar
    20    19    24    1
    21    11    10    1
    22    18    23    1
    23    10    12    1
    24    10    13    1
