@<TRIPOS>MOLECULE
GS-386-0.out
 11 10 0 0 0
SMALL
MULLIKEN_CHARGES
****
Gaussian 16 # wB97XD def2tzvp, opt=(calcfc, maxcycles=70, maxstep=8), freq=noraman
@<TRIPOS>ATOM
      1 C           0.0377   -0.0431    0.0000 C.2     1  UNL1       -0.0984
      2 C           0.3300    1.4312    0.0000 C.2     1  UNL1        0.2807
      3 O          -0.5909    2.2138    0.0001 O.2     1  UNL1       -0.3642
      4 C           0.8547   -1.0960   -0.0000 C.2     1  UNL1       -0.0201
      5 H           0.4552   -2.0997   -0.0001 H       1  UNL1        0.2046
      6 CL          2.5682   -1.0941    0.0000 Cl      1  UNL1       -0.0303
      7 BR         -1.8155   -0.4662   -0.0000 Br      1  UNL1       -0.0529
      8 C           1.7519    1.9109   -0.0001 C.3     1  UNL1       -0.3873
      9 H           2.2832    1.5446    0.8786 H       1  UNL1        0.1620
     10 H           1.7424    2.9980   -0.0003 H       1  UNL1        0.1440
     11 H           2.2833    1.5442   -0.8785 H       1  UNL1        0.1619
@<TRIPOS>BOND
     1    11     8    1
     2    10     8    1
     3     5     4    1
     4     8     2    1
     5     8     9    1
     6     4     1    2
     7     4     6    1
     8     7     1    1
     9     1     2    1
    10     2     3    2
