@<TRIPOS>MOLECULE
GS-338-0.out
 14 13 0 0 0
SMALL
MULLIKEN_CHARGES
****
Gaussian 16 # wB97XD def2tzvp, opt=(calcfc, maxcycles=70, maxstep=8), freq=noraman
@<TRIPOS>ATOM
      1 C           1.0374    0.7109    0.1205 C.2     1  UNL1       -0.0798
      2 C           1.5455   -0.6905   -0.0821 C.2     1  UNL1        0.3009
      3 O           2.4998   -0.8594   -0.8093 O.2     1  UNL1       -0.3871
      4 C          -0.2370    1.0796    0.1359 C.2     1  UNL1       -0.1215
      5 H          -0.5251    2.1155    0.2425 H       1  UNL1        0.1830
      6 BR         -1.7509   -0.0255   -0.0968 Br      1  UNL1       -0.0592
      7 C           2.1149    1.7546    0.2363 C.3     1  UNL1       -0.3378
      8 H           2.7271    1.7564   -0.6661 H       1  UNL1        0.1431
      9 H           1.6900    2.7466    0.3780 H       1  UNL1        0.1355
     10 H           2.7734    1.5320    1.0783 H       1  UNL1        0.1426
     11 C           0.9232   -1.8460    0.6533 C.3     1  UNL1       -0.3897
     12 H           0.3933   -1.5324    1.5504 H       1  UNL1        0.1551
     13 H           0.2113   -2.3459   -0.0062 H       1  UNL1        0.1639
     14 H           1.7096   -2.5567    0.9034 H       1  UNL1        0.1510
@<TRIPOS>BOND
     1     3     2    2
     2     8     7    1
     3     6     4    1
     4     2     1    1
     5     2    11    1
     6    13    11    1
     7     1     4    2
     8     1     7    1
     9     4     5    1
    10     7     9    1
    11     7    10    1
    12    11    14    1
    13    11    12    1
