@<TRIPOS>MOLECULE
GS-322-0.out
 21 21 0 0 0
SMALL
MULLIKEN_CHARGES
****
Gaussian 16 # wB97XD def2tzvp, opt=(calcfc, maxcycles=70, maxstep=8), freq=noraman
@<TRIPOS>ATOM
      1 C           0.0420    0.0947   -0.0598 C.2     1  UNL1       -0.0134
      2 C           0.4897    1.5254    0.1301 C.2     1  UNL1        0.1935
      3 O           0.7698    2.2151   -0.8206 O.2     1  UNL1       -0.3564
      4 C           0.9070   -0.8983   -0.2024 C.2     1  UNL1       -0.1084
      5 H           0.6131   -1.9251   -0.3627 H       1  UNL1        0.1920
      6 BR          2.7803   -0.6757   -0.1344 Br      1  UNL1       -0.0558
      7 C          -1.4219   -0.1393   -0.0566 C.ar    1  UNL1        0.1594
      8 C          -1.9661   -1.2703    0.5520 C.ar    1  UNL1       -0.2525
      9 C          -3.3342   -1.4871    0.5354 C.ar    1  UNL1       -0.1345
     10 C          -4.1791   -0.5723   -0.0774 C.ar    1  UNL1       -0.1394
     11 C          -3.6479    0.5632   -0.6712 C.ar    1  UNL1       -0.1437
     12 C          -2.2794    0.7813   -0.6592 C.ar    1  UNL1       -0.2174
     13 H          -1.3167   -1.9736    1.0575 H       1  UNL1        0.1639
     14 H          -3.7424   -2.3685    1.0132 H       1  UNL1        0.1479
     15 H          -5.2484   -0.7404   -0.0848 H       1  UNL1        0.1490
     16 H          -4.3005    1.2832   -1.1481 H       1  UNL1        0.1480
     17 H          -1.8751    1.6658   -1.1353 H       1  UNL1        0.1566
     18 C           0.5245    2.0116    1.5463 C.3     1  UNL1       -0.3521
     19 H           1.2519    1.4198    2.1076 H       1  UNL1        0.1583
     20 H           0.7902    3.0654    1.5844 H       1  UNL1        0.1431
     21 H          -0.4487    1.8479    2.0142 H       1  UNL1        0.1620
@<TRIPOS>BOND
     1    16    11    1
     2    17    12    1
     3     3     2    2
     4    11    12   ar
     5    11    10   ar
     6    12     7   ar
     7     5     4    1
     8     4     6    1
     9     4     1    2
    10    15    10    1
    11    10     9   ar
    12     1     7    1
    13     1     2    1
    14     7     8   ar
    15     2    18    1
    16     9     8   ar
    17     9    14    1
    18     8    13    1
    19    18    20    1
    20    18    21    1
    21    18    19    1
