@<TRIPOS>MOLECULE
GS-35-0.out
 30 31 0 0 0
SMALL
MULLIKEN_CHARGES
****
Gaussian 16 # wB97XD def2tzvp, opt=(calcfc, maxcycles=70, maxstep=10), freq=norama
@<TRIPOS>ATOM
      1 C           0.2512    1.5286   -0.0059 C.2     1  UNL1        0.0292
      2 C           1.6497    2.0918    0.0844 C.2     1  UNL1        0.1950
      3 O           2.1016    2.8104   -0.7904 O.2     1  UNL1       -0.4383
      4 C          -0.0678    0.2321   -0.0083 C.2     1  UNL1        0.1125
      5 C          -1.4680   -0.2642   -0.0428 C.ar    1  UNL1        0.1094
      6 C          -1.8724   -1.1146   -1.0690 C.ar    1  UNL1       -0.2182
      7 C          -3.1674   -1.6063   -1.1032 C.ar    1  UNL1       -0.1476
      8 C          -4.0656   -1.2717   -0.0992 C.ar    1  UNL1       -0.1328
      9 C          -3.6633   -0.4408    0.9366 C.ar    1  UNL1       -0.1278
     10 C          -2.3723    0.0639    0.9630 C.ar    1  UNL1       -0.2512
     11 H          -1.1685   -1.3889   -1.8454 H       1  UNL1        0.1561
     12 H          -3.4740   -2.2569   -1.9122 H       1  UNL1        0.1452
     13 H          -5.0749   -1.6624   -0.1211 H       1  UNL1        0.1475
     14 H          -4.3555   -0.1850    1.7286 H       1  UNL1        0.1456
     15 H          -2.0598    0.7099    1.7736 H       1  UNL1        0.1595
     16 C           0.9911   -0.8132   -0.0039 C.ar    1  UNL1        0.0748
     17 C           0.9384   -1.8453    0.9317 C.ar    1  UNL1       -0.1963
     18 C           1.9176   -2.8241    0.9520 C.ar    1  UNL1       -0.1489
     19 C           2.9508   -2.7958    0.0245 C.ar    1  UNL1       -0.1265
     20 C           2.9976   -1.7849   -0.9235 C.ar    1  UNL1       -0.1497
     21 C           2.0226   -0.7991   -0.9390 C.ar    1  UNL1       -0.1861
     22 H           0.1293   -1.8741    1.6514 H       1  UNL1        0.1595
     23 H           1.8728   -3.6134    1.6915 H       1  UNL1        0.1456
     24 H           3.7124   -3.5650    0.0368 H       1  UNL1        0.1480
     25 H           3.7922   -1.7647   -1.6584 H       1  UNL1        0.1459
     26 H           2.0562   -0.0175   -1.6878 H       1  UNL1        0.1562
     27 CL         -0.9348    2.7865   -0.1851 Cl      1  UNL1       -0.0785
     28 N           2.3143    1.7729    1.2045 N.am    1  UNL1       -0.4131
     29 H           3.2718    2.0637    1.3073 H       1  UNL1        0.2862
     30 H           1.9222    1.1513    1.8887 H       1  UNL1        0.2990
@<TRIPOS>BOND
     1    12     7    1
     2    11     6    1
     3    26    21    1
     4    25    20    1
     5     7     6   ar
     6     7     8   ar
     7     6     5   ar
     8    21    20   ar
     9    21    16   ar
    10    20    19   ar
    11     3     2    2
    12    27     1    1
    13    13     8    1
    14     8     9   ar
    15     5     4    1
    16     5    10   ar
    17     4     1    2
    18     4    16    1
    19     1     2    1
    20    16    17   ar
    21    19    24    1
    22    19    18   ar
    23     2    28   am
    24    17    18   ar
    25    17    22    1
    26     9    10   ar
    27     9    14    1
    28    18    23    1
    29    10    15    1
    30    28    29    1
    31    28    30    1
