@<TRIPOS>MOLECULE
GS-376-0.out
 18 18 0 0 0
SMALL
MULLIKEN_CHARGES
****
Gaussian 16 # wb97xd def2tzvp opt=(calcfc, maxcycles=100, maxstep=10) freq=noraman
@<TRIPOS>ATOM
      1 C          -1.8607    0.7431    0.8613 C.2     1  UNL1       -0.2541
      2 C          -0.6332    1.3307    0.2423 C.2     1  UNL1        0.3867
      3 O          -0.6855    2.4758   -0.1573 O.2     1  UNL1       -0.3850
      4 C          -2.5323   -0.3215    0.4576 C.2     1  UNL1       -0.0824
      5 H          -3.4617   -0.6288    0.9147 H       1  UNL1        0.1962
      6 CL         -2.0703   -1.3350   -0.8655 Cl      1  UNL1       -0.0773
      7 H          -2.2951    1.3275    1.6646 H       1  UNL1        0.1866
      8 C           0.6190    0.5329    0.1674 C.ar    1  UNL1        0.0428
      9 C           0.8052   -0.6047    0.9490 C.ar    1  UNL1       -0.2081
     10 C           2.0000   -1.3033    0.8865 C.ar    1  UNL1       -0.1269
     11 C           3.0078   -0.8770    0.0335 C.ar    1  UNL1       -0.1310
     12 C           2.8263    0.2552   -0.7519 C.ar    1  UNL1       -0.1195
     13 C           1.6400    0.9622   -0.6795 C.ar    1  UNL1       -0.2057
     14 H           0.0190   -0.9395    1.6133 H       1  UNL1        0.1739
     15 H           2.1439   -2.1818    1.5018 H       1  UNL1        0.1508
     16 H           3.9383   -1.4279   -0.0205 H       1  UNL1        0.1525
     17 H           3.6126    0.5846   -1.4186 H       1  UNL1        0.1506
     18 H           1.4880    1.8486   -1.2811 H       1  UNL1        0.1499
@<TRIPOS>BOND
     1    17    12    1
     2    18    13    1
     3     6     4    1
     4    12    13   ar
     5    12    11   ar
     6    13     8   ar
     7     3     2    2
     8    16    11    1
     9    11    10   ar
    10     8     2    1
    11     8     9   ar
    12     2     1    1
    13     4     1    2
    14     4     5    1
    15     1     7    1
    16    10     9   ar
    17    10    15    1
    18     9    14    1
