@<TRIPOS>MOLECULE
GS-328-0.out
 28 29 0 0 0
SMALL
MULLIKEN_CHARGES
****
Gaussian 16 # wB97XD def2tzvp, opt=(calcfc, maxcycles=70, maxstep=8), freq=noraman
@<TRIPOS>ATOM
      1 C          -0.5082    0.7396    0.2470 C.2     1  UNL1       -0.0645
      2 C           0.4450   -0.1264    1.0354 C.2     1  UNL1        0.3000
      3 O           0.6096    0.0850    2.2168 O.2     1  UNL1       -0.3687
      4 C          -0.1341    1.9013   -0.2681 C.2     1  UNL1       -0.0762
      5 H          -0.8067    2.5652   -0.7907 H       1  UNL1        0.1915
      6 BR          1.6307    2.5624   -0.1833 Br      1  UNL1       -0.0549
      7 C          -1.8883    0.2214    0.0914 C.ar    1  UNL1        0.1503
      8 C          -2.6003    0.4287   -1.0903 C.ar    1  UNL1       -0.2536
      9 C          -3.8933   -0.0490   -1.2248 C.ar    1  UNL1       -0.1420
     10 C          -4.4898   -0.7516   -0.1872 C.ar    1  UNL1       -0.1268
     11 C          -3.7834   -0.9770    0.9851 C.ar    1  UNL1       -0.1554
     12 C          -2.4904   -0.4979    1.1238 C.ar    1  UNL1       -0.2243
     13 H          -2.1320    0.9483   -1.9166 H       1  UNL1        0.1663
     14 H          -4.4323    0.1183   -2.1486 H       1  UNL1        0.1475
     15 H          -5.4983   -1.1295   -0.2956 H       1  UNL1        0.1489
     16 H          -4.2397   -1.5278    1.7974 H       1  UNL1        0.1471
     17 H          -1.9529   -0.6720    2.0474 H       1  UNL1        0.1594
     18 C           1.1138   -1.2440    0.3230 C.ar    1  UNL1        0.0484
     19 C           1.9112   -2.1277    1.0498 C.ar    1  UNL1       -0.2115
     20 C           2.5488   -3.1736    0.4095 C.ar    1  UNL1       -0.1239
     21 C           2.3965   -3.3438   -0.9619 C.ar    1  UNL1       -0.1138
     22 C           1.6061   -2.4677   -1.6913 C.ar    1  UNL1       -0.1595
     23 C           0.9643   -1.4199   -1.0510 C.ar    1  UNL1       -0.1644
     24 H           2.0206   -1.9826    2.1163 H       1  UNL1        0.1497
     25 H           3.1658   -3.8593    0.9755 H       1  UNL1        0.1512
     26 H           2.8967   -4.1631   -1.4625 H       1  UNL1        0.1536
     27 H           1.4894   -2.6002   -2.7588 H       1  UNL1        0.1503
     28 H           0.3506   -0.7365   -1.6236 H       1  UNL1        0.1754
@<TRIPOS>BOND
     1    27    22    1
     2    14     9    1
     3    13     8    1
     4    22    23   ar
     5    22    21   ar
     6    28    23    1
     7    26    21    1
     8     9     8   ar
     9     9    10   ar
    10     8     7   ar
    11    23    18   ar
    12    21    20   ar
    13     5     4    1
    14    15    10    1
    15     4     6    1
    16     4     1    2
    17    10    11   ar
    18     7     1    1
    19     7    12   ar
    20     1     2    1
    21    18     2    1
    22    18    19   ar
    23    20    25    1
    24    20    19   ar
    25    11    12   ar
    26    11    16    1
    27     2     3    2
    28    19    24    1
    29    12    17    1
