@<TRIPOS>MOLECULE
GS-382-0.out
 19 18 0 0 0
SMALL
MULLIKEN_CHARGES
****
Gaussian 16 # wB97XD def2tzvp, opt=(calcfc, maxcycles=70, maxstep=8), freq=noraman
@<TRIPOS>ATOM
      1 C          -0.6929    0.9660    0.0742 C.2     1  UNL1       -0.1494
      2 C           0.5647    0.4230   -0.5528 C.2     1  UNL1        0.3208
      3 O           0.7595    0.6446   -1.7443 O.2     1  UNL1       -0.4945
      4 C          -1.7879    0.2370    0.2045 C.2     1  UNL1       -0.0863
      5 H          -2.7239    0.6280    0.5765 H       1  UNL1        0.1801
      6 CL         -1.8643   -1.4507   -0.1994 Cl      1  UNL1       -0.1063
      7 C          -0.6584    2.4206    0.4357 C.3     1  UNL1       -0.3200
      8 H          -0.3824    3.0165   -0.4363 H       1  UNL1        0.1469
      9 H          -1.6254    2.7603    0.8034 H       1  UNL1        0.1379
     10 H           0.0929    2.6027    1.2081 H       1  UNL1        0.1461
     11 N           1.4295   -0.2394    0.2342 N.am    1  UNL1       -0.1017
     12 C           2.6559   -0.7746   -0.3223 C.3     1  UNL1       -0.2767
     13 C           1.2220   -0.5009    1.6441 C.3     1  UNL1       -0.2934
     14 H           2.7065   -0.5355   -1.3795 H       1  UNL1        0.1504
     15 H           3.5180   -0.3431    0.1905 H       1  UNL1        0.1422
     16 H           2.6806   -1.8589   -0.1928 H       1  UNL1        0.1407
     17 H           0.3200   -0.0126    1.9998 H       1  UNL1        0.1697
     18 H           1.1313   -1.5754    1.8191 H       1  UNL1        0.1470
     19 H           2.0733   -0.1267    2.2158 H       1  UNL1        0.1464
@<TRIPOS>BOND
     1     3     2    2
     2    14    12    1
     3     2     1    1
     4     2    11   am
     5     8     7    1
     6    12    16    1
     7    12    15    1
     8    12    11    1
     9     6     4    1
    10     1     4    2
    11     1     7    1
    12     4     5    1
    13    11    13    1
    14     7     9    1
    15     7    10    1
    16    13    18    1
    17    13    17    1
    18    13    19    1
