@<TRIPOS>MOLECULE
GS-330-0.out
 11 10 0 0 0
SMALL
MULLIKEN_CHARGES
****
Gaussian 16 # wB97XD def2tzvp, opt=(calcfc, maxcycles=70, maxstep=8), freq=noraman
@<TRIPOS>ATOM
      1 C          -1.0302    1.1234   -0.0003 C.2     1  UNL1       -0.2782
      2 C          -1.9658   -0.0309   -0.0000 C.2     1  UNL1        0.3234
      3 O          -3.1558    0.2180    0.0006 O.2     1  UNL1       -0.3965
      4 C           0.2945    1.2121   -0.0003 C.2     1  UNL1       -0.0603
      5 H           0.7735    2.1809   -0.0005 H       1  UNL1        0.2004
      6 BR          1.5747   -0.1643    0.0001 Br      1  UNL1       -0.0280
      7 H          -1.5530    2.0747   -0.0005 H       1  UNL1        0.1633
      8 C          -1.4739   -1.4476   -0.0004 C.3     1  UNL1       -0.3752
      9 H          -0.8538   -1.6363    0.8772 H       1  UNL1        0.1561
     10 H          -2.3295   -2.1188   -0.0010 H       1  UNL1        0.1390
     11 H          -0.8531   -1.6357   -0.8777 H       1  UNL1        0.1561
@<TRIPOS>BOND
     1    11     8    1
     2    10     8    1
     3     7     1    1
     4     5     4    1
     5     8     2    1
     6     8     9    1
     7     1     4    2
     8     1     2    1
     9     4     6    1
    10     2     3    2
