@<TRIPOS>MOLECULE
GS-332-0.out
 12 11 0 0 0
SMALL
MULLIKEN_CHARGES
****
Gaussian 16 # wB97XD def2tzvp, opt=(calcfc, maxcycles=70, maxstep=8), freq=noraman
@<TRIPOS>ATOM
      1 C           0.4666    1.2433    0.0000 C.2     1  UNL1       -0.3124
      2 C           1.3887    0.0883    0.0000 C.2     1  UNL1        0.4798
      3 O           1.0817   -1.0780    0.0000 O.2     1  UNL1       -0.4118
      4 C          -0.8587    1.2187   -0.0000 C.2     1  UNL1       -0.0727
      5 H          -1.4263    2.1379   -0.0000 H       1  UNL1        0.2002
      6 BR         -1.9747   -0.2877   -0.0000 Br      1  UNL1       -0.0186
      7 H           0.9354    2.2193   -0.0000 H       1  UNL1        0.1756
      8 O           2.6518    0.5187    0.0000 O.3     1  UNL1       -0.2773
      9 C           3.6645   -0.4892   -0.0000 C.3     1  UNL1       -0.1929
     10 H           4.6102    0.0440   -0.0000 H       1  UNL1        0.1490
     11 H           3.5809   -1.1125    0.8896 H       1  UNL1        0.1406
     12 H           3.5809   -1.1125   -0.8896 H       1  UNL1        0.1406
@<TRIPOS>BOND
     1    12     9    1
     2     5     4    1
     3     9    10    1
     4     9     8    1
     5     9    11    1
     6     1     4    2
     7     1     7    1
     8     1     2    1
     9     3     2    2
    10     4     6    1
    11     2     8    1
