@<TRIPOS>MOLECULE
GS-372-0.out
 12 11 0 0 0
SMALL
MULLIKEN_CHARGES
****
Gaussian 16 # wB97XD def2tzvp, opt=(calcfc, maxcycles=70, maxstep=8), freq=noraman
@<TRIPOS>ATOM
      1 C          -0.2360    1.1150    0.0000 C.2     1  UNL1       -0.2945
      2 C           0.7820    0.0452    0.0000 C.2     1  UNL1        0.4637
      3 O           0.5790   -1.1439    0.0000 O.2     1  UNL1       -0.4130
      4 C          -1.5547    0.9691    0.0000 C.2     1  UNL1       -0.0385
      5 H          -2.2056    1.8321    0.0000 H       1  UNL1        0.1971
      6 CL         -2.4285   -0.5084   -0.0000 Cl      1  UNL1       -0.0498
      7 H           0.1407    2.1293    0.0000 H       1  UNL1        0.1765
      8 O           2.0034    0.5844   -0.0000 O.3     1  UNL1       -0.2781
      9 C           3.1004   -0.3306   -0.0000 C.3     1  UNL1       -0.1928
     10 H           3.9957    0.2835   -0.0001 H       1  UNL1        0.1487
     11 H           3.0723   -0.9589    0.8896 H       1  UNL1        0.1403
     12 H           3.0722   -0.9589   -0.8896 H       1  UNL1        0.1403
@<TRIPOS>BOND
     1    12     9    1
     2    10     9    1
     3     9     8    1
     4     9    11    1
     5     6     4    1
     6     8     2    1
     7     4     5    1
     8     4     1    2
     9     2     1    1
    10     2     3    2
    11     1     7    1
