@<TRIPOS>MOLECULE
GS-361-0.out
 18 18 0 0 0
SMALL
MULLIKEN_CHARGES
****
Gaussian 16 # wb97xd def2tzvp opt=(calcfc, maxcycles=100, maxstep=10) freq=noraman
@<TRIPOS>ATOM
      1 C          -0.7814    0.1802   -0.0202 C.2     1  UNL1       -0.0586
      2 C          -1.3135    1.5094   -0.3945 C.2     1  UNL1        0.1559
      3 O          -0.6224    2.4421   -0.7273 O.2     1  UNL1       -0.3596
      4 C          -1.5964   -0.8361    0.2765 C.2     1  UNL1       -0.0344
      5 H          -1.2158   -1.8058    0.5669 H       1  UNL1        0.1995
      6 CL         -3.3174   -0.7930    0.2485 Cl      1  UNL1       -0.0576
      7 C           0.6859   -0.0375    0.0087 C.ar    1  UNL1        0.2079
      8 C           1.5153    0.8144    0.7368 C.ar    1  UNL1       -0.2434
      9 C           2.8814    0.5905    0.7832 C.ar    1  UNL1       -0.1248
     10 C           3.4384   -0.4820    0.0991 C.ar    1  UNL1       -0.1532
     11 C           2.6213   -1.3296   -0.6330 C.ar    1  UNL1       -0.1247
     12 C           1.2529   -1.1069   -0.6800 C.ar    1  UNL1       -0.2703
     13 H           1.0882    1.6493    1.2765 H       1  UNL1        0.1507
     14 H           3.5140    1.2548    1.3581 H       1  UNL1        0.1463
     15 H           4.5067   -0.6534    0.1349 H       1  UNL1        0.1473
     16 H           3.0480   -2.1641   -1.1747 H       1  UNL1        0.1468
     17 H           0.6198   -1.7613   -1.2666 H       1  UNL1        0.1631
     18 H          -2.4092    1.6089   -0.3609 H       1  UNL1        0.1090
@<TRIPOS>BOND
     1    17    12    1
     2    16    11    1
     3     3     2    2
     4    12    11   ar
     5    12     7   ar
     6    11    10   ar
     7     2    18    1
     8     2     1    1
     9     1     7    1
    10     1     4    2
    11     7     8   ar
    12    10    15    1
    13    10     9   ar
    14     6     4    1
    15     4     5    1
    16     8     9   ar
    17     8    13    1
    18     9    14    1
