@<TRIPOS>MOLECULE
GS-39-0.out
 40 42 0 0 0
SMALL
MULLIKEN_CHARGES
****
Gaussian 16 # wb97xd def2tzvp opt=(calcfc, maxcycles=100, maxstep=10) freq=noraman
@<TRIPOS>ATOM
      1 C          -0.6911   -1.3567   -0.2117 C.2     1  UNL1        0.0322
      2 C           0.7969   -1.5354   -0.3837 C.2     1  UNL1        0.2286
      3 O           1.2544   -2.2234   -1.2746 O.2     1  UNL1       -0.4351
      4 C          -1.3204   -0.1784   -0.1399 C.2     1  UNL1        0.1483
      5 C          -2.7838   -0.0431    0.0722 C.ar    1  UNL1        0.0955
      6 C          -3.4018   -0.5823    1.1969 C.ar    1  UNL1       -0.2496
      7 C          -4.7627   -0.4109    1.3976 C.ar    1  UNL1       -0.1294
      8 C          -5.5204    0.2928    0.4727 C.ar    1  UNL1       -0.1299
      9 C          -4.9096    0.8369   -0.6486 C.ar    1  UNL1       -0.1489
     10 C          -3.5465    0.6803   -0.8417 C.ar    1  UNL1       -0.2161
     11 H          -2.8123   -1.1290    1.9217 H       1  UNL1        0.1607
     12 H          -5.2312   -0.8275    2.2800 H       1  UNL1        0.1460
     13 H          -6.5838    0.4225    0.6282 H       1  UNL1        0.1480
     14 H          -5.4946    1.3904   -1.3720 H       1  UNL1        0.1455
     15 H          -3.0688    1.1187   -1.7095 H       1  UNL1        0.1567
     16 C          -0.5665    1.0966   -0.2936 C.ar    1  UNL1        0.0305
     17 C           0.2586    1.3202   -1.3930 C.ar    1  UNL1       -0.1990
     18 C           0.9725    2.5031   -1.5053 C.ar    1  UNL1       -0.1335
     19 C           0.8678    3.4757   -0.5222 C.ar    1  UNL1       -0.1290
     20 C           0.0352    3.2667    0.5688 C.ar    1  UNL1       -0.1496
     21 C          -0.6861    2.0890    0.6779 C.ar    1  UNL1       -0.1800
     22 H           0.3394    0.5650   -2.1650 H       1  UNL1        0.1558
     23 H           1.6106    2.6644   -2.3645 H       1  UNL1        0.1458
     24 H           1.4288    4.3973   -0.6080 H       1  UNL1        0.1480
     25 H          -0.0540    4.0237    1.3373 H       1  UNL1        0.1453
     26 H          -1.3371    1.9295    1.5288 H       1  UNL1        0.1590
     27 CL         -1.5378   -2.8725   -0.2186 Cl      1  UNL1       -0.0754
     28 N           1.5329   -0.8756    0.5448 N.am    1  UNL1       -0.2401
     29 C           2.9129   -0.5952    0.4816 C.ar    1  UNL1        0.3152
     30 C           3.8373   -1.4975   -0.0330 C.ar    1  UNL1       -0.3123
     31 C           5.1816   -1.1548   -0.0578 C.ar    1  UNL1       -0.0910
     32 C           5.6128    0.0684    0.4330 C.ar    1  UNL1       -0.1737
     33 C           4.6856    0.9611    0.9534 C.ar    1  UNL1       -0.1117
     34 C           3.3407    0.6351    0.9745 C.ar    1  UNL1       -0.2895
     35 H           1.0102   -0.3087    1.1928 H       1  UNL1        0.2766
     36 H           3.5071   -2.4536   -0.4084 H       1  UNL1        0.1529
     37 H           5.8980   -1.8594   -0.4607 H       1  UNL1        0.1466
     38 H           6.6639    0.3248    0.4118 H       1  UNL1        0.1449
     39 H           5.0078    1.9203    1.3379 H       1  UNL1        0.1459
     40 H           2.6132    1.3393    1.3620 H       1  UNL1        0.1658
@<TRIPOS>BOND
     1    23    18    1
     2    22    17    1
     3    15    10    1
     4    18    17   ar
     5    18    19   ar
     6    17    16   ar
     7    14     9    1
     8     3     2    2
     9    10     9   ar
    10    10     5   ar
    11     9     8   ar
    12    24    19    1
    13    19    20   ar
    14    37    31    1
    15    36    30    1
    16     2     1    1
    17     2    28   am
    18    16     4    1
    19    16    21   ar
    20    27     1    1
    21     1     4    2
    22     4     5    1
    23    31    30   ar
    24    31    32   ar
    25    30    29   ar
    26     5     6   ar
    27    38    32    1
    28    32    33   ar
    29     8    13    1
    30     8     7   ar
    31    29    28    1
    32    29    34   ar
    33    28    35    1
    34    20    21   ar
    35    20    25    1
    36    21    26    1
    37    33    34   ar
    38    33    39    1
    39    34    40    1
    40     6     7   ar
    41     6    11    1
    42     7    12    1
