@<TRIPOS>MOLECULE
GS-355-0.out
 10 9 0 0 0
SMALL
MULLIKEN_CHARGES
****
Gaussian 16 # wB97XD def2tzvp, opt=(calcfc, maxcycles=70, maxstep=8), freq=noraman
@<TRIPOS>ATOM
      1 C          -0.8356   -0.3386   -0.0630 C.2     1  UNL1       -0.0210
      2 C          -1.1098    1.1436   -0.0795 C.2     1  UNL1        0.3358
      3 O          -0.2922    1.9214   -0.5377 O.2     1  UNL1       -0.4397
      4 C           0.3532   -0.9262   -0.0226 C.2     1  UNL1       -0.1335
      5 H           0.4327   -2.0031   -0.0125 H       1  UNL1        0.2017
      6 BR          2.0215   -0.0871    0.0716 Br      1  UNL1       -0.0002
      7 CL         -2.2265   -1.3924   -0.0919 Cl      1  UNL1       -0.0849
      8 N          -2.2837    1.5279    0.4423 N.am    1  UNL1       -0.4358
      9 H          -2.5065    2.5080    0.4522 H       1  UNL1        0.2901
     10 H          -2.9518    0.8756    0.8107 H       1  UNL1        0.2874
@<TRIPOS>BOND
     1     3     2    2
     2     7     1    1
     3     2     1    1
     4     2     8   am
     5     1     4    2
     6     4     5    1
     7     4     6    1
     8     8     9    1
     9     8    10    1
