@<TRIPOS>MOLECULE
GS-346-0.out
 11 10 0 0 0
SMALL
MULLIKEN_CHARGES
****
Gaussian 16 # wB97XD def2tzvp, opt=(calcfc, maxcycles=70, maxstep=8), freq=noraman
@<TRIPOS>ATOM
      1 C           0.4129   -0.0118    0.0633 C.2     1  UNL1       -0.0632
      2 C           0.3491    1.4905    0.1480 C.2     1  UNL1        0.2805
      3 O          -0.4800    2.0102    0.8538 O.2     1  UNL1       -0.3504
      4 C          -0.6138   -0.8447   -0.0269 C.2     1  UNL1       -0.1202
      5 H          -0.4772   -1.9126   -0.1095 H       1  UNL1        0.2058
      6 BR         -2.4210   -0.3464   -0.0888 Br      1  UNL1       -0.0108
      7 BR          2.1554   -0.7703    0.0531 Br      1  UNL1       -0.0423
      8 C           1.3295    2.2811   -0.6669 C.3     1  UNL1       -0.3782
      9 H           1.4548    1.8490   -1.6601 H       1  UNL1        0.1627
     10 H           0.9835    3.3094   -0.7372 H       1  UNL1        0.1490
     11 H           2.3060    2.2666   -0.1784 H       1  UNL1        0.1670
@<TRIPOS>BOND
     1     9     8    1
     2    10     8    1
     3     8    11    1
     4     8     2    1
     5     5     4    1
     6     6     4    1
     7     4     1    2
     8     7     1    1
     9     1     2    1
    10     2     3    2
