@<TRIPOS>MOLECULE
GS-358-0.out
 16 15 0 0 0
SMALL
MULLIKEN_CHARGES
****
Gaussian 16 # wB97XD def2tzvp, opt=(calcfc, maxcycles=70, maxstep=8), freq=noraman
@<TRIPOS>ATOM
      1 C           0.3344    1.0049   -0.0449 C.2     1  UNL1       -0.0531
      2 C           1.0469   -0.1980   -0.6170 C.2     1  UNL1        0.3195
      3 O           1.2387   -0.2267   -1.8252 O.2     1  UNL1       -0.4705
      4 C          -0.9622    1.1072    0.1797 C.2     1  UNL1       -0.1527
      5 H          -1.4405    2.0186    0.5046 H       1  UNL1        0.2018
      6 BR         -2.1292   -0.3502   -0.0382 Br      1  UNL1       -0.0301
      7 CL          1.3617    2.3836    0.1807 Cl      1  UNL1       -0.0675
      8 N           1.4351   -1.1502    0.2420 N.am    1  UNL1       -0.0977
      9 C           2.1002   -2.3400   -0.2543 C.3     1  UNL1       -0.2752
     10 C           1.2309   -1.1058    1.6770 C.3     1  UNL1       -0.2971
     11 H           2.1599   -2.2967   -1.3367 H       1  UNL1        0.1535
     12 H           3.1064   -2.4056    0.1640 H       1  UNL1        0.1474
     13 H           1.5375   -3.2260    0.0456 H       1  UNL1        0.1446
     14 H           0.8097   -0.1534    1.9833 H       1  UNL1        0.1717
     15 H           0.5545   -1.9060    1.9840 H       1  UNL1        0.1538
     16 H           2.1875   -1.2429    2.1837 H       1  UNL1        0.1515
@<TRIPOS>BOND
     1     3     2    2
     2    11     9    1
     3     2     1    1
     4     2     8   am
     5     9    13    1
     6     9    12    1
     7     9     8    1
     8     1     4    2
     9     1     7    1
    10     6     4    1
    11     4     5    1
    12     8    10    1
    13    10    14    1
    14    10    15    1
    15    10    16    1
