@<TRIPOS>MOLECULE
GS-397-0.out
 13 12 0 0 0
SMALL
MULLIKEN_CHARGES
****
Gaussian 16 # wB97XD def2tzvp, opt=(calcfc, maxcycles=70, maxstep=8), freq=noraman
@<TRIPOS>ATOM
      1 C           0.2980    0.6044    0.0587 C.2     1  UNL1       -0.0441
      2 C          -0.6967   -0.5204    0.1720 C.2     1  UNL1        0.3796
      3 O          -0.3685   -1.6015    0.6356 O.2     1  UNL1       -0.4644
      4 C           1.6151    0.4873   -0.0654 C.2     1  UNL1       -0.0932
      5 H           2.2431    1.3634   -0.1365 H       1  UNL1        0.1980
      6 CL          2.4942   -0.9790   -0.1700 Cl      1  UNL1       -0.0400
      7 CL         -0.3363    2.2290    0.0863 Cl      1  UNL1       -0.0866
      8 N          -1.9321   -0.2578   -0.2713 N.am    1  UNL1       -0.2993
      9 C          -2.9765   -1.2574   -0.2234 C.3     1  UNL1       -0.2501
     10 H          -2.1446    0.6531   -0.6374 H       1  UNL1        0.2674
     11 H          -3.8844   -0.8286   -0.6387 H       1  UNL1        0.1509
     12 H          -2.6979   -2.1369   -0.8052 H       1  UNL1        0.1407
     13 H          -3.1668   -1.5693    0.8044 H       1  UNL1        0.1410
@<TRIPOS>BOND
     1    12     9    1
     2    11     9    1
     3    10     8    1
     4     8     9    1
     5     8     2   am
     6     9    13    1
     7     6     4    1
     8     5     4    1
     9     4     1    2
    10     1     7    1
    11     1     2    1
    12     2     3    2
