@<TRIPOS>MOLECULE
GS-399-0.out
 20 20 0 0 0
SMALL
MULLIKEN_CHARGES
****
Gaussian 16 # wB97XD def2tzvp, opt=(calcfc, maxcycles=70, maxstep=8), freq=noraman
@<TRIPOS>ATOM
      1 C           1.9631    0.5423   -0.1135 C.2     1  UNL1       -0.0714
      2 C           0.6575   -0.1910   -0.2877 C.2     1  UNL1        0.4404
      3 O           0.6412   -1.3196   -0.7381 O.2     1  UNL1       -0.4425
      4 C           3.1370   -0.0100    0.1706 C.2     1  UNL1       -0.0935
      5 H           4.0249    0.5976    0.2681 H       1  UNL1        0.2002
      6 CL          3.4206   -1.6738    0.4582 Cl      1  UNL1       -0.0374
      7 CL          1.9363    2.2742   -0.3056 Cl      1  UNL1       -0.0796
      8 N          -0.4315    0.5095    0.1047 N.am    1  UNL1       -0.2616
      9 C          -1.7853    0.1284    0.0737 C.ar    1  UNL1        0.3065
     10 C          -2.7145    1.0845    0.4857 C.ar    1  UNL1       -0.2961
     11 C          -4.0652    0.7901    0.4899 C.ar    1  UNL1       -0.0982
     12 C          -4.5111   -0.4604    0.0829 C.ar    1  UNL1       -0.1831
     13 C          -3.5866   -1.4078   -0.3253 C.ar    1  UNL1       -0.1074
     14 C          -2.2267   -1.1280   -0.3338 C.ar    1  UNL1       -0.2866
     15 H          -0.2598    1.4410    0.4486 H       1  UNL1        0.2557
     16 H          -2.3743    2.0631    0.8036 H       1  UNL1        0.1481
     17 H          -4.7720    1.5436    0.8129 H       1  UNL1        0.1482
     18 H          -5.5683   -0.6915    0.0854 H       1  UNL1        0.1452
     19 H          -3.9204   -2.3872   -0.6442 H       1  UNL1        0.1463
     20 H          -1.5169   -1.8733   -0.6517 H       1  UNL1        0.1668
@<TRIPOS>BOND
     1     3     2    2
     2    20    14    1
     3    19    13    1
     4    14    13   ar
     5    14     9   ar
     6    13    12   ar
     7     7     1    1
     8     2     1    1
     9     2     8   am
    10     1     4    2
    11     9     8    1
    12     9    10   ar
    13    12    18    1
    14    12    11   ar
    15     8    15    1
    16     4     5    1
    17     4     6    1
    18    10    11   ar
    19    10    16    1
    20    11    17    1
