@<TRIPOS>MOLECULE
GS-329-0.out
 8 7 0 0 0
SMALL
MULLIKEN_CHARGES
****
Gaussian 16 # wB97XD def2tzvp, opt=(calcfc, maxcycles=70, maxstep=8), freq=noraman
@<TRIPOS>ATOM
      1 C           1.2868    0.9002    0.0000 C.2     1  UNL1       -0.2197
      2 C           1.9473   -0.4093    0.0000 C.2     1  UNL1        0.1936
      3 O           3.1500   -0.5346   -0.0000 O.2     1  UNL1       -0.3688
      4 C          -0.0246    1.1086   -0.0000 C.2     1  UNL1       -0.0708
      5 H          -0.4488    2.1023   -0.0000 H       1  UNL1        0.2038
      6 BR         -1.3495   -0.2256   -0.0000 Br      1  UNL1       -0.0270
      7 H           1.9373    1.7677    0.0000 H       1  UNL1        0.1745
      8 H           1.2891   -1.2937    0.0000 H       1  UNL1        0.1145
@<TRIPOS>BOND
     1     3     2    2
     2     4     5    1
     3     4     6    1
     4     4     1    2
     5     7     1    1
     6     1     2    1
     7     2     8    1
