@<TRIPOS>MOLECULE
GS-370-0.out
 11 10 0 0 0
SMALL
MULLIKEN_CHARGES
****
Gaussian 16 # wB97XD def2tzvp, opt=(calcfc, maxcycles=70, maxstep=8), freq=noraman
@<TRIPOS>ATOM
      1 C          -0.3713   -1.0880   -0.0000 C.2     1  UNL1       -0.2749
      2 C          -1.3980   -0.0164   -0.0000 C.2     1  UNL1        0.3250
      3 O          -2.5651   -0.3580    0.0000 O.2     1  UNL1       -0.3991
      4 C           0.9566   -1.0472   -0.0000 C.2     1  UNL1       -0.0215
      5 H           1.5335   -1.9615   -0.0000 H       1  UNL1        0.1984
      6 CL          1.9716    0.3430    0.0000 Cl      1  UNL1       -0.0589
      7 H          -0.8021   -2.0832   -0.0000 H       1  UNL1        0.1636
      8 C          -1.0176    1.4349   -0.0000 C.3     1  UNL1       -0.3789
      9 H          -0.4126    1.6698   -0.8770 H       1  UNL1        0.1549
     10 H          -1.9218    2.0388   -0.0000 H       1  UNL1        0.1364
     11 H          -0.4126    1.6698    0.8770 H       1  UNL1        0.1549
@<TRIPOS>BOND
     1     9     8    1
     2    10     8    1
     3     5     4    1
     4     7     1    1
     5     8     2    1
     6     8    11    1
     7     1     4    2
     8     1     2    1
     9     4     6    1
    10     2     3    2
