@<TRIPOS>MOLECULE
GS-317-0.out
 16 15 0 0 0
SMALL
MULLIKEN_CHARGES
****
Gaussian 16 # wB97XD def2tzvp, opt=(calcfc, maxcycles=70, maxstep=8), freq=noraman
@<TRIPOS>ATOM
      1 C           0.7205    0.2602    0.0297 C.2     1  UNL1       -0.0282
      2 C          -0.5845   -0.4771    0.1258 C.2     1  UNL1        0.3908
      3 O          -0.6202   -1.6465    0.4896 O.2     1  UNL1       -0.4918
      4 C           1.9196   -0.2966   -0.1079 C.2     1  UNL1       -0.1265
      5 H           2.7633    0.3836   -0.1569 H       1  UNL1        0.1613
      6 C           2.2584   -1.7441   -0.2209 C.3     1  UNL1       -0.3332
      7 H           2.9919   -1.8786   -1.0179 H       1  UNL1        0.1368
      8 H           2.7326   -2.0804    0.7054 H       1  UNL1        0.1434
      9 H           1.3889   -2.3664   -0.4040 H       1  UNL1        0.1414
     10 CL          0.6242    2.0148    0.0905 Cl      1  UNL1       -0.1287
     11 N          -1.6879    0.2022   -0.2157 N.am    1  UNL1       -0.3010
     12 C          -2.9961   -0.4116   -0.1728 C.3     1  UNL1       -0.2512
     13 H          -1.6062    1.1593   -0.5087 H       1  UNL1        0.2618
     14 H          -3.7385    0.3359   -0.4398 H       1  UNL1        0.1487
     15 H          -3.0612   -1.2449   -0.8743 H       1  UNL1        0.1381
     16 H          -3.2130   -0.7875    0.8279 H       1  UNL1        0.1383
@<TRIPOS>BOND
     1     7     6    1
     2    15    12    1
     3    13    11    1
     4    14    12    1
     5     9     6    1
     6     6     4    1
     7     6     8    1
     8    11    12    1
     9    11     2   am
    10    12    16    1
    11     5     4    1
    12     4     1    2
    13     1    10    1
    14     1     2    1
    15     2     3    2
