@<TRIPOS>MOLECULE
GS-351-0.out
 20 20 0 0 0
SMALL
MULLIKEN_CHARGES
****
Gaussian 16 # wB97XD def2tzvp, opt=(calcfc, maxcycles=70, maxstep=8), freq=noraman
@<TRIPOS>ATOM
      1 C          -1.5257    0.3252    0.0129 C.2     1  UNL1       -0.1369
      2 C          -0.1280    0.5076    0.5520 C.2     1  UNL1        0.4373
      3 O           0.0462    0.8814    1.6944 O.2     1  UNL1       -0.4344
      4 C          -2.1380   -0.8258   -0.1962 C.2     1  UNL1       -0.1396
      5 H          -3.1592   -0.9018   -0.5377 H       1  UNL1        0.2052
      6 BR         -1.3153   -2.4909    0.1066 Br      1  UNL1       -0.0239
      7 BR         -2.4513    1.9479   -0.2778 Br      1  UNL1       -0.0195
      8 N           0.8333    0.2344   -0.3563 N.am    1  UNL1       -0.2674
      9 C           2.2331    0.2680   -0.2044 C.ar    1  UNL1        0.3117
     10 C           2.9950   -0.0902   -1.3160 C.ar    1  UNL1       -0.2945
     11 C           4.3759   -0.0835   -1.2454 C.ar    1  UNL1       -0.0975
     12 C           5.0154    0.2795   -0.0676 C.ar    1  UNL1       -0.1805
     13 C           4.2548    0.6345    1.0346 C.ar    1  UNL1       -0.1089
     14 C           2.8677    0.6331    0.9796 C.ar    1  UNL1       -0.2903
     15 H           0.5057   -0.0549   -1.2644 H       1  UNL1        0.2829
     16 H           2.5020   -0.3749   -2.2381 H       1  UNL1        0.1485
     17 H           4.9538   -0.3640   -2.1165 H       1  UNL1        0.1487
     18 H           6.0961    0.2846   -0.0118 H       1  UNL1        0.1457
     19 H           4.7413    0.9193    1.9589 H       1  UNL1        0.1471
     20 H           2.2847    0.9105    1.8424 H       1  UNL1        0.1664
@<TRIPOS>BOND
     1    16    10    1
     2    17    11    1
     3    10    11   ar
     4    10     9   ar
     5    15     8    1
     6    11    12   ar
     7     5     4    1
     8     8     9    1
     9     8     2   am
    10     7     1    1
    11     9    14   ar
    12     4     1    2
    13     4     6    1
    14    12    18    1
    15    12    13   ar
    16     1     2    1
    17     2     3    2
    18    14    13   ar
    19    14    20    1
    20    13    19    1
