@<TRIPOS>MOLECULE
GS-38-0.out
 36 37 0 0 0
SMALL
MULLIKEN_CHARGES
****
Gaussian 16 # wB97XD def2tzvp, opt=(calcfc, maxcycles=70, maxstep=10), freq=norama
@<TRIPOS>ATOM
      1 C           0.2645   -1.2914   -0.2714 C.2     1  UNL1        0.0177
      2 C           1.7552   -1.4618   -0.4282 C.2     1  UNL1        0.1604
      3 O           2.1893   -1.8808   -1.4957 O.2     1  UNL1       -0.4692
      4 C          -0.3811   -0.1272   -0.1832 C.2     1  UNL1        0.0885
      5 C          -1.8587   -0.0200   -0.0657 C.ar    1  UNL1        0.0973
      6 C          -2.5393   -0.5810    1.0108 C.ar    1  UNL1       -0.2434
      7 C          -3.9136   -0.4350    1.1243 C.ar    1  UNL1       -0.1348
      8 C          -4.6218    0.2670    0.1598 C.ar    1  UNL1       -0.1271
      9 C          -3.9486    0.8330   -0.9141 C.ar    1  UNL1       -0.1537
     10 C          -2.5734    0.6993   -1.0202 C.ar    1  UNL1       -0.2168
     11 H          -1.9891   -1.1274    1.7663 H       1  UNL1        0.1608
     12 H          -4.4312   -0.8701    1.9697 H       1  UNL1        0.1447
     13 H          -5.6951    0.3777    0.2472 H       1  UNL1        0.1471
     14 H          -4.4948    1.3848   -1.6684 H       1  UNL1        0.1447
     15 H          -2.0474    1.1540   -1.8511 H       1  UNL1        0.1529
     16 C           0.3696    1.1570   -0.1773 C.ar    1  UNL1        0.1769
     17 C           1.3535    1.4382   -1.1221 C.ar    1  UNL1       -0.2175
     18 C           2.0506    2.6363   -1.0758 C.ar    1  UNL1       -0.1459
     19 C           1.7698    3.5695   -0.0895 C.ar    1  UNL1       -0.1306
     20 C           0.7787    3.3046    0.8463 C.ar    1  UNL1       -0.1341
     21 C           0.0783    2.1115    0.7975 C.ar    1  UNL1       -0.2444
     22 H           1.5688    0.7207   -1.9033 H       1  UNL1        0.1501
     23 H           2.8109    2.8418   -1.8185 H       1  UNL1        0.1449
     24 H           2.3149    4.5041   -0.0541 H       1  UNL1        0.1470
     25 H           0.5502    4.0304    1.6163 H       1  UNL1        0.1446
     26 H          -0.6953    1.9098    1.5281 H       1  UNL1        0.1585
     27 CL         -0.5655   -2.8178   -0.3667 Cl      1  UNL1       -0.0795
     28 N           2.5319   -1.1468    0.6216 N.am    1  UNL1       -0.0768
     29 C           3.9742   -1.1546    0.4728 C.3     1  UNL1       -0.2778
     30 C           2.0512   -0.7201    1.9211 C.3     1  UNL1       -0.3113
     31 H           4.2316   -1.3861   -0.5553 H       1  UNL1        0.1531
     32 H           4.3712   -0.1719    0.7368 H       1  UNL1        0.1412
     33 H           4.4184   -1.9003    1.1351 H       1  UNL1        0.1490
     34 H           0.9967   -0.9465    2.0409 H       1  UNL1        0.1700
     35 H           2.6095   -1.2498    2.6940 H       1  UNL1        0.1566
     36 H           2.2018    0.3541    2.0532 H       1  UNL1        0.1570
@<TRIPOS>BOND
     1    22    17    1
     2    15    10    1
     3    23    18    1
     4    14     9    1
     5     3     2    2
     6    17    18   ar
     7    17    16   ar
     8    18    19   ar
     9    10     9   ar
    10    10     5   ar
    11     9     8   ar
    12    31    29    1
    13     2     1    1
    14     2    28   am
    15    27     1    1
    16     1     4    2
    17     4    16    1
    18     4     5    1
    19    16    21   ar
    20    19    24    1
    21    19    20   ar
    22     5     6   ar
    23     8    13    1
    24     8     7   ar
    25    29    28    1
    26    29    32    1
    27    29    33    1
    28    28    30    1
    29    21    20   ar
    30    21    26    1
    31    20    25    1
    32     6     7   ar
    33     6    11    1
    34     7    12    1
    35    30    34    1
    36    30    36    1
    37    30    35    1
