@<TRIPOS>MOLECULE
GS-334-0.out
 16 15 0 0 0
SMALL
MULLIKEN_CHARGES
****
Gaussian 16 # wB97XD def2tzvp, opt=(calcfc, maxcycles=70, maxstep=8), freq=noraman
@<TRIPOS>ATOM
      1 C           0.1256    1.2918    0.9151 C.2     1  UNL1       -0.2740
      2 C           1.2123    0.8633   -0.0251 C.2     1  UNL1        0.3534
      3 O           1.5457    1.6510   -0.9055 O.2     1  UNL1       -0.4946
      4 C          -1.1412    0.9292    0.8613 C.2     1  UNL1       -0.1189
      5 H          -1.9074    1.3489    1.4954 H       1  UNL1        0.1977
      6 BR         -1.8085   -0.3734   -0.3346 Br      1  UNL1       -0.0645
      7 H           0.4020    2.0640    1.6250 H       1  UNL1        0.1850
      8 N           1.7780   -0.3423    0.1516 N.am    1  UNL1       -0.1126
      9 C           2.8068   -0.8003   -0.7612 C.3     1  UNL1       -0.2738
     10 C           1.4448   -1.2630    1.2198 C.3     1  UNL1       -0.2955
     11 H           2.9308   -0.0760   -1.5596 H       1  UNL1        0.1503
     12 H           3.7538   -0.9223   -0.2310 H       1  UNL1        0.1439
     13 H           2.5181   -1.7644   -1.1846 H       1  UNL1        0.1401
     14 H           0.7548   -0.8068    1.9226 H       1  UNL1        0.1660
     15 H           0.9898   -2.1684    0.8119 H       1  UNL1        0.1503
     16 H           2.3543   -1.5422    1.7551 H       1  UNL1        0.1471
@<TRIPOS>BOND
     1    11     9    1
     2    13     9    1
     3     3     2    2
     4     9    12    1
     5     9     8    1
     6     6     4    1
     7     2     8   am
     8     2     1    1
     9     8    10    1
    10    15    10    1
    11     4     1    2
    12     4     5    1
    13     1     7    1
    14    10    16    1
    15    10    14    1
