@<TRIPOS>MOLECULE
GS-348-0.out
 12 11 0 0 0
SMALL
MULLIKEN_CHARGES
****
Gaussian 16 # wB97XD def2tzvp, opt=(calcfc, maxcycles=70, maxstep=8), freq=noraman
@<TRIPOS>ATOM
      1 C           0.4947   -0.2561    0.0190 C.2     1  UNL1       -0.0751
      2 C           0.2316    1.1857    0.3432 C.2     1  UNL1        0.4237
      3 O           0.4801    1.6723    1.4136 O.2     1  UNL1       -0.3824
      4 C          -0.4210   -1.1960   -0.1215 C.2     1  UNL1       -0.1362
      5 H          -0.1811   -2.2313   -0.3111 H       1  UNL1        0.2061
      6 BR         -2.2630   -0.8555    0.0279 Br      1  UNL1       -0.0201
      7 BR          2.3286   -0.6901   -0.1024 Br      1  UNL1       -0.0154
      8 O          -0.2788    1.8273   -0.6909 O.3     1  UNL1       -0.2528
      9 C          -0.5907    3.2138   -0.4900 C.3     1  UNL1       -0.2003
     10 H          -0.9890    3.5618   -1.4374 H       1  UNL1        0.1548
     11 H          -1.3336    3.3184    0.2991 H       1  UNL1        0.1485
     12 H           0.3100    3.7655   -0.2265 H       1  UNL1        0.1492
@<TRIPOS>BOND
     1    10     9    1
     2     8     9    1
     3     8     2    1
     4     9    12    1
     5     9    11    1
     6     5     4    1
     7     4     1    2
     8     4     6    1
     9     7     1    1
    10     1     2    1
    11     2     3    2
