@<TRIPOS>MOLECULE
GS-353-0.out
 8 7 0 0 0
SMALL
MULLIKEN_CHARGES
****
Gaussian 16 # wB97XD def2tzvp, opt=(calcfc, maxcycles=70, maxstep=8), freq=noraman
@<TRIPOS>ATOM
      1 C          -0.9153   -0.1335    0.0000 C.2     1  UNL1        0.0111
      2 C          -1.0571    1.3397    0.0000 C.2     1  UNL1        0.1416
      3 O          -2.1167    1.9087   -0.0000 O.2     1  UNL1       -0.3384
      4 C           0.2406   -0.7935   -0.0000 C.2     1  UNL1       -0.0902
      5 H           0.2782   -1.8731   -0.0000 H       1  UNL1        0.2067
      6 BR          1.9368   -0.0034    0.0000 Br      1  UNL1        0.0049
      7 CL         -2.3903   -1.0380   -0.0000 Cl      1  UNL1       -0.0696
      8 H          -0.1056    1.8915    0.0000 H       1  UNL1        0.1338
@<TRIPOS>BOND
     1     5     4    1
     2     4     6    1
     3     4     1    2
     4     3     2    2
     5     7     1    1
     6     2     8    1
     7     2     1    1
