@<TRIPOS>MOLECULE
GS-340-0.out
 15 14 0 0 0
SMALL
MULLIKEN_CHARGES
****
Gaussian 16 # wB97XD def2tzvp, opt=(calcfc, maxcycles=70, maxstep=8), freq=noraman
@<TRIPOS>ATOM
      1 C           0.5101    1.2297   -0.1285 C.2     1  UNL1       -0.0909
      2 C           1.3587    0.0575    0.2583 C.2     1  UNL1        0.4297
      3 O           1.9658    0.0035    1.2982 O.2     1  UNL1       -0.4067
      4 C          -0.8070    1.1578   -0.2245 C.2     1  UNL1       -0.1280
      5 H          -1.4206    2.0161   -0.4570 H       1  UNL1        0.1837
      6 BR         -1.8272   -0.4041    0.0720 Br      1  UNL1       -0.0640
      7 C           1.2546    2.5184   -0.3224 C.3     1  UNL1       -0.3346
      8 H           1.9830    2.4209   -1.1301 H       1  UNL1        0.1487
      9 H           0.5720    3.3314   -0.5629 H       1  UNL1        0.1398
     10 H           1.8018    2.7733    0.5870 H       1  UNL1        0.1477
     11 O           1.3964   -0.8752   -0.6810 O.3     1  UNL1       -0.2641
     12 C           2.1839   -2.0376   -0.3958 C.3     1  UNL1       -0.2010
     13 H           3.2238   -1.7590   -0.2317 H       1  UNL1        0.1444
     14 H           1.7966   -2.5468    0.4856 H       1  UNL1        0.1441
     15 H           2.0945   -2.6731   -1.2711 H       1  UNL1        0.1511
@<TRIPOS>BOND
     1    15    12    1
     2     8     7    1
     3    11    12    1
     4    11     2    1
     5     9     7    1
     6     5     4    1
     7    12    13    1
     8    12    14    1
     9     7     1    1
    10     7    10    1
    11     4     1    2
    12     4     6    1
    13     1     2    1
    14     2     3    2
