@<TRIPOS>MOLECULE
GS-431-1.out
 33 34 0 0 0
SMALL
MULLIKEN_CHARGES
****
Gaussian 16 # wB97XD def2tzvp, opt=(calcfc, maxcycles=70, maxstep=1), freq=noraman
@<TRIPOS>ATOM
      1 C          -1.7085   -0.2514    0.0043 C.2     1  UNL1       -0.0476
      2 C          -0.4550   -1.0376    0.2870 C.2     1  UNL1        0.3048
      3 O          -0.3878   -1.8209    1.2143 O.2     1  UNL1       -0.4415
      4 C          -1.7764    1.0793   -0.0742 C.2     1  UNL1        0.0230
      5 C          -3.0266    1.8627   -0.3265 C.3     1  UNL1       -0.3389
      6 H          -2.8658    2.5614   -1.1494 H       1  UNL1        0.1473
      7 H          -3.8782    1.2313   -0.5635 H       1  UNL1        0.1376
      8 H          -3.2632    2.4615    0.5563 H       1  UNL1        0.1525
      9 C          -0.5438    1.8939    0.1352 C.ar    1  UNL1        0.0825
     10 C          -0.0845    2.7407   -0.8716 C.ar    1  UNL1       -0.2071
     11 C           1.0781    3.4748   -0.6950 C.ar    1  UNL1       -0.1466
     12 C           1.7860    3.3847    0.4950 C.ar    1  UNL1       -0.1390
     13 C           1.3249    2.5575    1.5084 C.ar    1  UNL1       -0.1353
     14 C           0.1668    1.8168    1.3303 C.ar    1  UNL1       -0.1931
     15 H          -0.6246    2.8096   -1.8080 H       1  UNL1        0.1565
     16 H           1.4327    4.1166   -1.4913 H       1  UNL1        0.1458
     17 H           2.6936    3.9582    0.6319 H       1  UNL1        0.1472
     18 H           1.8684    2.4860    2.4417 H       1  UNL1        0.1462
     19 H          -0.1892    1.1702    2.1228 H       1  UNL1        0.1561
     20 BR         -3.2359   -1.3728   -0.1351 Br      1  UNL1       -0.0696
     21 N           0.5538   -0.7873   -0.5856 N.am    1  UNL1       -0.2467
     22 C           1.9132   -1.1193   -0.4107 C.ar    1  UNL1        0.3100
     23 C           2.8624   -0.1899   -0.8281 C.ar    1  UNL1       -0.2815
     24 C           4.2116   -0.4702   -0.6973 C.ar    1  UNL1       -0.1180
     25 C           4.6244   -1.6732   -0.1410 C.ar    1  UNL1       -0.1712
     26 C           3.6751   -2.5947    0.2751 C.ar    1  UNL1       -0.0919
     27 C           2.3201   -2.3296    0.1394 C.ar    1  UNL1       -0.3099
     28 H           0.3706   -0.0726   -1.2710 H       1  UNL1        0.2740
     29 H           2.5376    0.7581   -1.2419 H       1  UNL1        0.1668
     30 H           4.9418    0.2591   -1.0240 H       1  UNL1        0.1452
     31 H           5.6792   -1.8907   -0.0339 H       1  UNL1        0.1447
     32 H           3.9881   -3.5376    0.7053 H       1  UNL1        0.1464
     33 H           1.5841   -3.0522    0.4564 H       1  UNL1        0.1513
@<TRIPOS>BOND
     1    15    10    1
     2    16    11    1
     3    28    21    1
     4    29    23    1
     5     6     5    1
     6    30    24    1
     7    10    11   ar
     8    10     9   ar
     9    23    24   ar
    10    23    22   ar
    11    24    25   ar
    12    11    12   ar
    13    21    22    1
    14    21     2   am
    15     7     5    1
    16    22    27   ar
    17     5     4    1
    18     5     8    1
    19    25    31    1
    20    25    26   ar
    21    20     1    1
    22     4     1    2
    23     4     9    1
    24     1     2    1
    25     9    14   ar
    26    27    26   ar
    27    27    33    1
    28    26    32    1
    29     2     3    2
    30    12    17    1
    31    12    13   ar
    32    14    13   ar
    33    14    19    1
    34    13    18    1
