@<TRIPOS>MOLECULE
GS-423-1.out
 36 37 0 0 0
SMALL
MULLIKEN_CHARGES
****
Gaussian 16 # wB97XD def2tzvp, opt=(calcfc, maxcycles=70, maxstep=1), freq=noraman
@<TRIPOS>ATOM
      1 C          -1.8433   -1.6126   -0.1043 C.2     1  UNL1        0.0244
      2 C          -0.3686   -1.6778    0.1954 C.2     1  UNL1        0.2795
      3 O           0.0641   -2.3723    1.1006 O.2     1  UNL1       -0.4650
      4 C          -2.4915   -0.4411   -0.1579 C.2     1  UNL1        0.0082
      5 C          -3.9619   -0.2963   -0.4338 C.3     1  UNL1       -0.3387
      6 H          -4.1216    0.4129   -1.2486 H       1  UNL1        0.1391
      7 H          -4.4470   -1.2301   -0.7026 H       1  UNL1        0.1184
      8 H          -4.4649    0.1168    0.4443 H       1  UNL1        0.1433
      9 C          -1.7961    0.8537    0.1056 C.ar    1  UNL1        0.0679
     10 C          -1.7665    1.8525   -0.8668 C.ar    1  UNL1       -0.2102
     11 C          -1.0967    3.0448   -0.6368 C.ar    1  UNL1       -0.1508
     12 C          -0.4600    3.2644    0.5763 C.ar    1  UNL1       -0.1435
     13 C          -0.4990    2.2847    1.5575 C.ar    1  UNL1       -0.1388
     14 C          -1.1633    1.0903    1.3241 C.ar    1  UNL1       -0.1998
     15 H          -2.2508    1.6882   -1.8219 H       1  UNL1        0.1524
     16 H          -1.0696    3.8024   -1.4097 H       1  UNL1        0.1427
     17 H           0.0629    4.1950    0.7559 H       1  UNL1        0.1446
     18 H          -0.0099    2.4492    2.5093 H       1  UNL1        0.1430
     19 H          -1.1883    0.3273    2.0926 H       1  UNL1        0.1510
     20 C          -2.4586   -2.9751   -0.2490 C.3     1  UNL1       -0.3535
     21 H          -2.0250   -3.5025   -1.1025 H       1  UNL1        0.1386
     22 H          -2.2406   -3.5703    0.6393 H       1  UNL1        0.1403
     23 H          -3.5359   -2.9424   -0.3807 H       1  UNL1        0.1196
     24 N           0.4225   -0.9489   -0.6390 N.am    1  UNL1       -0.2494
     25 C           1.7728   -0.6062   -0.4328 C.ar    1  UNL1        0.3039
     26 C           2.1743    0.6798   -0.7871 C.ar    1  UNL1       -0.2775
     27 C           3.4938    1.0660   -0.6258 C.ar    1  UNL1       -0.1222
     28 C           4.4228    0.1781   -0.1004 C.ar    1  UNL1       -0.1728
     29 C           4.0189   -1.1008    0.2532 C.ar    1  UNL1       -0.0943
     30 C           2.7015   -1.5026    0.0856 C.ar    1  UNL1       -0.3121
     31 H          -0.0709   -0.3615   -1.2908 H       1  UNL1        0.2665
     32 H           1.4421    1.3792   -1.1747 H       1  UNL1        0.1653
     33 H           3.7938    2.0684   -0.9037 H       1  UNL1        0.1436
     34 H           5.4535    0.4809    0.0307 H       1  UNL1        0.1434
     35 H           4.7372   -1.8023    0.6586 H       1  UNL1        0.1448
     36 H           2.3937   -2.5015    0.3535 H       1  UNL1        0.1481
@<TRIPOS>BOND
     1    15    10    1
     2    16    11    1
     3    31    24    1
     4     6     5    1
     5    32    26    1
     6    21    20    1
     7    33    27    1
     8    10    11   ar
     9    10     9   ar
    10    26    27   ar
    11    26    25   ar
    12     7     5    1
    13    24    25    1
    14    24     2   am
    15    11    12   ar
    16    27    28   ar
    17     5     4    1
    18     5     8    1
    19    25    30   ar
    20    23    20    1
    21    20     1    1
    22    20    22    1
    23     4     1    2
    24     4     9    1
    25     1     2    1
    26    28    34    1
    27    28    29   ar
    28    30    29   ar
    29    30    36    1
    30     9    14   ar
    31     2     3    2
    32    29    35    1
    33    12    17    1
    34    12    13   ar
    35    14    13   ar
    36    14    19    1
    37    13    18    1
