@<TRIPOS>MOLECULE
GS-405-1.out
 36 37 0 0 0
SMALL
MULLIKEN_CHARGES
****
Gaussian 16 # wB97XD def2tzvp, opt=(calcfc, maxcycles=70, maxstep=1), freq=noraman
@<TRIPOS>ATOM
      1 C           0.5528   -0.0410    0.0037 C.2     1  UNL1        0.1128
      2 C           0.0704    1.3553    0.3006 C.2     1  UNL1        0.1814
      3 O           0.3847    1.9321    1.3363 O.2     1  UNL1       -0.4774
      4 C          -0.3002   -1.0571   -0.1854 C.2     1  UNL1        0.0301
      5 C           0.1334   -2.4553   -0.5236 C.3     1  UNL1       -0.3685
      6 H          -0.0421   -3.1211    0.3252 H       1  UNL1        0.1478
      7 H          -0.4622   -2.8404   -1.3532 H       1  UNL1        0.1412
      8 H           1.1846   -2.5113   -0.7959 H       1  UNL1        0.1459
      9 C          -1.7712   -0.8692   -0.0435 C.ar    1  UNL1        0.0529
     10 C          -2.6331   -1.1690   -1.0972 C.ar    1  UNL1       -0.2215
     11 C          -3.9997   -0.9761   -0.9692 C.ar    1  UNL1       -0.1535
     12 C          -4.5286   -0.4975    0.2215 C.ar    1  UNL1       -0.1290
     13 C          -3.6815   -0.2131    1.2823 C.ar    1  UNL1       -0.1606
     14 C          -2.3134   -0.3979    1.1503 C.ar    1  UNL1       -0.1895
     15 H          -2.2314   -1.5350   -2.0344 H       1  UNL1        0.1526
     16 H          -4.6534   -1.1991   -1.8030 H       1  UNL1        0.1436
     17 H          -5.5964   -0.3505    0.3224 H       1  UNL1        0.1455
     18 H          -4.0856    0.1528    2.2178 H       1  UNL1        0.1435
     19 H          -1.6556   -0.1749    1.9813 H       1  UNL1        0.1518
     20 C           2.0326   -0.1705   -0.0058 C.ar    1  UNL1        0.1607
     21 C           2.7964    0.6333   -0.8509 C.ar    1  UNL1       -0.2106
     22 C           4.1787    0.5353   -0.8625 C.ar    1  UNL1       -0.1656
     23 C           4.8205   -0.3610   -0.0186 C.ar    1  UNL1       -0.1326
     24 C           4.0709   -1.1550    0.8370 C.ar    1  UNL1       -0.1321
     25 C           2.6873   -1.0584    0.8443 C.ar    1  UNL1       -0.2735
     26 H           2.3015    1.3377   -1.5097 H       1  UNL1        0.1446
     27 H           4.7566    1.1609   -1.5310 H       1  UNL1        0.1430
     28 H           5.9004   -0.4361   -0.0248 H       1  UNL1        0.1455
     29 H           4.5639   -1.8499    1.5051 H       1  UNL1        0.1432
     30 H           2.1059   -1.6736    1.5197 H       1  UNL1        0.1561
     31 N          -0.6769    1.9353   -0.6515 N.am    1  UNL1       -0.2629
     32 C          -1.2991    3.2256   -0.4593 C.3     1  UNL1       -0.2603
     33 H          -0.9429    1.3818   -1.4466 H       1  UNL1        0.2739
     34 H          -1.7723    3.5279   -1.3902 H       1  UNL1        0.1479
     35 H          -2.0554    3.1853    0.3283 H       1  UNL1        0.1359
     36 H          -0.5529    3.9698   -0.1826 H       1  UNL1        0.1375
@<TRIPOS>BOND
     1    15    10    1
     2    16    11    1
     3    27    22    1
     4    26    21    1
     5    33    31    1
     6    34    32    1
     7     7     5    1
     8    10    11   ar
     9    10     9   ar
    10    11    12   ar
    11    22    21   ar
    12    22    23   ar
    13    21    20   ar
    14     8     5    1
    15    31    32    1
    16    31     2   am
    17     5     4    1
    18     5     6    1
    19    32    36    1
    20    32    35    1
    21     4     9    1
    22     4     1    2
    23     9    14   ar
    24    28    23    1
    25    23    24   ar
    26    20     1    1
    27    20    25   ar
    28     1     2    1
    29    12    17    1
    30    12    13   ar
    31     2     3    2
    32    24    25   ar
    33    24    29    1
    34    25    30    1
    35    14    13   ar
    36    14    19    1
    37    13    18    1
