@<TRIPOS>MOLECULE
GS-470-0.out
 19 18 0 0 0
SMALL
MULLIKEN_CHARGES
****
Gaussian 16 # wB97XD def2tzvp, opt=(calcfc, maxcycles=70, maxstep=10), freq=norama
@<TRIPOS>ATOM
      1 C           0.4004    0.5561   -0.1400 C.2     1  UNL1       -0.1092
      2 C          -1.0389    0.5027   -0.5826 C.2     1  UNL1        0.3258
      3 O          -1.3215    0.8276   -1.7304 O.2     1  UNL1       -0.4871
      4 C           1.0305    1.6824    0.1468 C.2     1  UNL1       -0.1326
      5 C           2.4560    1.8815    0.5250 C.3     1  UNL1       -0.3296
      6 H           2.9382    2.5561   -0.1858 H       1  UNL1        0.1437
      7 H           2.5181    2.3563    1.5065 H       1  UNL1        0.1438
      8 H           3.0122    0.9466    0.5526 H       1  UNL1        0.1306
      9 H           0.4152    2.5777    0.1024 H       1  UNL1        0.1658
     10 BR          1.2551   -1.1476   -0.1566 Br      1  UNL1       -0.0772
     11 N          -1.9456    0.0823    0.3171 N.am    1  UNL1       -0.1026
     12 C          -1.6505   -0.2399    1.6992 C.3     1  UNL1       -0.2941
     13 C          -3.3329   -0.0750   -0.0731 C.3     1  UNL1       -0.2793
     14 H          -1.7581   -1.3131    1.8731 H       1  UNL1        0.1508
     15 H          -0.6424    0.0643    1.9627 H       1  UNL1        0.1680
     16 H          -2.3501    0.2893    2.3485 H       1  UNL1        0.1463
     17 H          -3.4232    0.0434   -1.1479 H       1  UNL1        0.1498
     18 H          -3.6814   -1.0681    0.2163 H       1  UNL1        0.1414
     19 H          -3.9551    0.6716    0.4258 H       1  UNL1        0.1459
@<TRIPOS>BOND
     1     3     2    2
     2    17    13    1
     3     2     1    1
     4     2    11   am
     5     6     5    1
     6    10     1    1
     7     1     4    2
     8    13    18    1
     9    13    11    1
    10    13    19    1
    11     9     4    1
    12     4     5    1
    13    11    12    1
    14     5     8    1
    15     5     7    1
    16    12    14    1
    17    12    15    1
    18    12    16    1
