@<TRIPOS>MOLECULE
GS-421-0.out
 29 29 0 0 0
SMALL
MULLIKEN_CHARGES
****
Gaussian 16 # wB97XD def2tzvp, opt=(calcfc, maxcycles=70, maxstep=10), freq=norama
@<TRIPOS>ATOM
      1 C          -1.6378    0.6959    0.0219 C.2     1  UNL1        0.0248
      2 C          -1.6260   -0.8063    0.1274 C.2     1  UNL1        0.2445
      3 O          -2.1680   -1.3851    1.0646 O.2     1  UNL1       -0.4925
      4 C          -0.4986    1.3968   -0.0228 C.2     1  UNL1        0.0039
      5 C          -0.4240    2.8948   -0.1285 C.3     1  UNL1       -0.3378
      6 H           0.2039    3.1804   -0.9753 H       1  UNL1        0.1371
      7 H          -1.3934    3.3679   -0.2576 H       1  UNL1        0.1163
      8 H           0.0481    3.3091    0.7660 H       1  UNL1        0.1406
      9 C           0.8311    0.7273    0.0782 C.ar    1  UNL1        0.0752
     10 C           1.7752    0.8620   -0.9386 C.ar    1  UNL1       -0.2111
     11 C           3.0054    0.2287   -0.8515 C.ar    1  UNL1       -0.1537
     12 C           3.3194   -0.5362    0.2635 C.ar    1  UNL1       -0.1342
     13 C           2.3947   -0.6619    1.2898 C.ar    1  UNL1       -0.1626
     14 C           1.1617   -0.0336    1.1976 C.ar    1  UNL1       -0.1880
     15 H           1.5387    1.4498   -1.8176 H       1  UNL1        0.1516
     16 H           3.7205    0.3317   -1.6580 H       1  UNL1        0.1431
     17 H           4.2810   -1.0285    0.3328 H       1  UNL1        0.1447
     18 H           2.6333   -1.2499    2.1671 H       1  UNL1        0.1428
     19 H           0.4425   -0.1351    2.0010 H       1  UNL1        0.1489
     20 C          -3.0305    1.2580    0.0313 C.3     1  UNL1       -0.3449
     21 H          -3.5856    0.9216   -0.8485 H       1  UNL1        0.1378
     22 H          -3.5656    0.8885    0.9079 H       1  UNL1        0.1380
     23 H          -3.0513    2.3438    0.0520 H       1  UNL1        0.1181
     24 N          -1.0438   -1.4683   -0.8854 N.am    1  UNL1       -0.2764
     25 C          -0.8685   -2.9027   -0.8674 C.3     1  UNL1       -0.2552
     26 H          -0.5671   -0.9316   -1.5880 H       1  UNL1        0.2721
     27 H          -1.8270   -3.4035   -0.7327 H       1  UNL1        0.1357
     28 H          -0.4379   -3.2138   -1.8159 H       1  UNL1        0.1469
     29 H          -0.2026   -3.2089   -0.0568 H       1  UNL1        0.1343
@<TRIPOS>BOND
     1    15    10    1
     2    28    25    1
     3    16    11    1
     4    26    24    1
     5     6     5    1
     6    10    11   ar
     7    10     9   ar
     8    24    25    1
     9    24     2   am
    10    25    27    1
    11    25    29    1
    12    11    12   ar
    13    21    20    1
    14     7     5    1
    15     5     4    1
    16     5     8    1
    17     4     1    2
    18     4     9    1
    19     1    20    1
    20     1     2    1
    21    20    23    1
    22    20    22    1
    23     9    14   ar
    24     2     3    2
    25    12    17    1
    26    12    13   ar
    27    14    13   ar
    28    14    19    1
    29    13    18    1
