@<TRIPOS>MOLECULE
GS-459-1.out
 16 15 0 0 0
SMALL
MULLIKEN_CHARGES
****
Gaussian 16 # wB97XD def2tzvp, opt=(calcfc, maxcycles=70, maxstep=1), freq=noraman
@<TRIPOS>ATOM
      1 C           0.2223    0.2570    0.0596 C.2     1  UNL1       -0.0472
      2 C          -1.2301   -0.1006   -0.0627 C.2     1  UNL1        0.3205
      3 O          -2.0439    0.6991   -0.5113 O.2     1  UNL1       -0.4869
      4 C           1.1551   -0.6702   -0.1630 C.2     1  UNL1       -0.1434
      5 C           2.6383   -0.5026   -0.1489 C.3     1  UNL1       -0.3373
      6 H           3.0524   -0.7490   -1.1299 H       1  UNL1        0.1376
      7 H           2.9588    0.5031    0.1136 H       1  UNL1        0.1177
      8 H           3.0846   -1.2016    0.5626 H       1  UNL1        0.1365
      9 H           0.8235   -1.6739   -0.4127 H       1  UNL1        0.1477
     10 C           0.4753    1.7071    0.3485 C.3     1  UNL1       -0.3367
     11 H          -0.0323    2.0099    1.2670 H       1  UNL1        0.1341
     12 H           1.5345    1.9261    0.4565 H       1  UNL1        0.1168
     13 H           0.0747    2.3270   -0.4549 H       1  UNL1        0.1336
     14 N          -1.5967   -1.3345    0.3398 N.am    1  UNL1       -0.4597
     15 H          -2.5636   -1.5995    0.2691 H       1  UNL1        0.2767
     16 H          -0.9700   -1.9374    0.8393 H       1  UNL1        0.2897
@<TRIPOS>BOND
     1     6     5    1
     2     3     2    2
     3    13    10    1
     4     9     4    1
     5     4     5    1
     6     4     1    2
     7     5     7    1
     8     5     8    1
     9     2     1    1
    10     2    14   am
    11     1    10    1
    12    15    14    1
    13    14    16    1
    14    10    12    1
    15    10    11    1
