@<TRIPOS>MOLECULE
GS-408-0.out
 41 43 0 0 0
SMALL
MULLIKEN_CHARGES
****
Gaussian 16 # wb97xd def2tzvp opt=(calcfc, maxcycles=100, maxstep=10) freq=noraman
@<TRIPOS>ATOM
      1 C           0.9847   -0.3464    0.1298 C.2     1  UNL1        0.0916
      2 C           0.2439    0.6797    0.9453 C.2     1  UNL1        0.2044
      3 O           0.5999    0.9197    2.0822 O.2     1  UNL1       -0.3836
      4 C           0.3603   -1.4062   -0.4043 C.2     1  UNL1       -0.0057
      5 C           1.0474   -2.4375   -1.2516 C.3     1  UNL1       -0.3729
      6 H           1.1396   -3.3781   -0.7026 H       1  UNL1        0.1498
      7 H           0.4464   -2.6495   -2.1378 H       1  UNL1        0.1430
      8 H           2.0386   -2.1235   -1.5695 H       1  UNL1        0.1474
      9 C          -1.0857   -1.6466   -0.1546 C.ar    1  UNL1        0.1951
     10 C          -1.9844   -1.7550   -1.2154 C.ar    1  UNL1       -0.2577
     11 C          -3.3356   -1.9410   -0.9782 C.ar    1  UNL1       -0.1498
     12 C          -3.8089   -2.0450    0.3238 C.ar    1  UNL1       -0.1281
     13 C          -2.9208   -1.9639    1.3847 C.ar    1  UNL1       -0.1529
     14 C          -1.5684   -1.7655    1.1461 C.ar    1  UNL1       -0.2339
     15 H          -1.6291   -1.6600   -2.2342 H       1  UNL1        0.1548
     16 H          -4.0237   -2.0015   -1.8119 H       1  UNL1        0.1434
     17 H          -4.8654   -2.1929    0.5078 H       1  UNL1        0.1456
     18 H          -3.2788   -2.0537    2.4024 H       1  UNL1        0.1431
     19 H          -0.8776   -1.7047    1.9779 H       1  UNL1        0.1557
     20 C           2.4460   -0.0967    0.0301 C.ar    1  UNL1        0.1568
     21 C           2.9115    1.1095   -0.4916 C.ar    1  UNL1       -0.1996
     22 C           4.2709    1.3640   -0.5813 C.ar    1  UNL1       -0.1621
     23 C           5.1867    0.4190   -0.1398 C.ar    1  UNL1       -0.1336
     24 C           4.7339   -0.7793    0.3932 C.ar    1  UNL1       -0.1243
     25 C           3.3734   -1.0337    0.4793 C.ar    1  UNL1       -0.2946
     26 H           2.2032    1.8539   -0.8375 H       1  UNL1        0.1596
     27 H           4.6159    2.3026   -0.9964 H       1  UNL1        0.1429
     28 H           6.2487    0.6179   -0.2069 H       1  UNL1        0.1455
     29 H           5.4416   -1.5181    0.7475 H       1  UNL1        0.1433
     30 H           3.0232   -1.9667    0.9030 H       1  UNL1        0.1539
     31 C          -0.8801    1.4389    0.3226 C.ar    1  UNL1        0.1264
     32 C          -1.8101    2.0669    1.1484 C.ar    1  UNL1       -0.2611
     33 C          -2.8463    2.8006    0.5995 C.ar    1  UNL1       -0.1161
     34 C          -2.9496    2.9304   -0.7805 C.ar    1  UNL1       -0.1254
     35 C          -2.0192    2.3191   -1.6079 C.ar    1  UNL1       -0.1533
     36 C          -0.9929    1.5671   -1.0586 C.ar    1  UNL1       -0.2170
     37 H          -1.7162    1.9626    2.2215 H       1  UNL1        0.1460
     38 H          -3.5755    3.2733    1.2447 H       1  UNL1        0.1476
     39 H          -3.7581    3.5084   -1.2100 H       1  UNL1        0.1497
     40 H          -2.0962    2.4224   -2.6825 H       1  UNL1        0.1466
     41 H          -0.2762    1.0783   -1.7059 H       1  UNL1        0.1795
@<TRIPOS>BOND
     1    40    35    1
     2    15    10    1
     3     7     5    1
     4    16    11    1
     5    41    36    1
     6    35    36   ar
     7    35    34   ar
     8     8     5    1
     9     5     6    1
    10     5     4    1
    11    10    11   ar
    12    10     9   ar
    13    39    34    1
    14    36    31   ar
    15    27    22    1
    16    11    12   ar
    17    26    21    1
    18    34    33   ar
    19    22    21   ar
    20    22    23   ar
    21    21    20   ar
    22     4     9    1
    23     4     1    2
    24    28    23    1
    25     9    14   ar
    26    23    24   ar
    27    20     1    1
    28    20    25   ar
    29     1     2    1
    30    31     2    1
    31    31    32   ar
    32    12    17    1
    33    12    13   ar
    34    24    25   ar
    35    24    29    1
    36    25    30    1
    37    33    32   ar
    38    33    38    1
    39     2     3    2
    40    14    13   ar
    41    14    19    1
    42    32    37    1
    43    13    18    1
