@<TRIPOS>MOLECULE
GS-435-0.out
 23 23 0 0 0
SMALL
MULLIKEN_CHARGES
****
Gaussian 16 # wB97XD def2tzvp, opt=(calcfc, maxcycles=70, maxstep=10), freq=norama
@<TRIPOS>ATOM
      1 C           1.4354    0.1031    0.0323 C.2     1  UNL1        0.0348
      2 C           1.2791   -1.3843    0.2357 C.2     1  UNL1        0.2268
      3 O           1.7773   -2.1850   -0.5377 O.2     1  UNL1       -0.4457
      4 C           0.4431    0.9806   -0.1133 C.2     1  UNL1       -0.0066
      5 C           0.6364    2.4505   -0.3264 C.3     1  UNL1       -0.3446
      6 H           0.2484    2.7310   -1.3084 H       1  UNL1        0.1499
      7 H           0.0616    3.0105    0.4137 H       1  UNL1        0.1460
      8 H           1.6786    2.7498   -0.2594 H       1  UNL1        0.1321
      9 C          -0.9703    0.5097   -0.1181 C.ar    1  UNL1        0.1113
     10 C          -1.4111   -0.3999   -1.0756 C.ar    1  UNL1       -0.1826
     11 C          -2.7292   -0.8303   -1.0829 C.ar    1  UNL1       -0.1481
     12 C          -3.6218   -0.3559   -0.1333 C.ar    1  UNL1       -0.1387
     13 C          -3.1920    0.5576    0.8195 C.ar    1  UNL1       -0.1413
     14 C          -1.8769    0.9945    0.8224 C.ar    1  UNL1       -0.2099
     15 H          -0.7166   -0.7696   -1.8199 H       1  UNL1        0.1569
     16 H          -3.0587   -1.5370   -1.8338 H       1  UNL1        0.1463
     17 H          -4.6502   -0.6937   -0.1368 H       1  UNL1        0.1476
     18 H          -3.8832    0.9316    1.5640 H       1  UNL1        0.1465
     19 H          -1.5486    1.7031    1.5730 H       1  UNL1        0.1558
     20 CL          3.1143    0.5632   -0.0599 Cl      1  UNL1       -0.1015
     21 N           0.5970   -1.7425    1.3340 N.am    1  UNL1       -0.4165
     22 H           0.4018   -2.7162    1.4939 H       1  UNL1        0.2852
     23 H           0.1698   -1.0598    1.9335 H       1  UNL1        0.2963
@<TRIPOS>BOND
     1    16    11    1
     2    15    10    1
     3     6     5    1
     4    11    10   ar
     5    11    12   ar
     6    10     9   ar
     7     3     2    2
     8     5     8    1
     9     5     4    1
    10     5     7    1
    11    17    12    1
    12    12    13   ar
    13     9     4    1
    14     9    14   ar
    15     4     1    2
    16    20     1    1
    17     1     2    1
    18     2    21   am
    19    13    14   ar
    20    13    18    1
    21    14    19    1
    22    21    22    1
    23    21    23    1
