@<TRIPOS>MOLECULE
GS-47-1.out
 40 42 0 0 0
SMALL
MULLIKEN_CHARGES
****
Gaussian 16 # wB97XD def2tzvp, opt=(maxcycles=70, maxstep=1), freq=noraman, scrf=(
@<TRIPOS>ATOM
      1 C          -0.4558   -0.5127   -0.1353 C.2     1  UNL1        0.0701
      2 C           0.9381   -1.0857   -0.1816 C.2     1  UNL1        0.3761
      3 O           1.1485   -2.2717   -0.3811 O.2     1  UNL1       -0.4872
      4 C          -1.4580   -1.3980   -0.1225 C.2     1  UNL1       -0.1638
      5 C          -2.9071   -1.1689   -0.0796 C.ar    1  UNL1        0.2252
      6 C          -3.5342   -0.0332   -0.5991 C.ar    1  UNL1       -0.2236
      7 C          -4.9105    0.1050   -0.5305 C.ar    1  UNL1       -0.1514
      8 C          -5.6878   -0.8814    0.0614 C.ar    1  UNL1       -0.1333
      9 C          -5.0802   -2.0205    0.5693 C.ar    1  UNL1       -0.1475
     10 C          -3.7051   -2.1660    0.4872 C.ar    1  UNL1       -0.2401
     11 H          -2.9483    0.7409   -1.0739 H       1  UNL1        0.1759
     12 H          -5.3796    0.9883   -0.9452 H       1  UNL1        0.1433
     13 H          -6.7628   -0.7667    0.1168 H       1  UNL1        0.1472
     14 H          -5.6782   -2.8007    1.0229 H       1  UNL1        0.1449
     15 H          -3.2360   -3.0632    0.8738 H       1  UNL1        0.1425
     16 H          -1.1583   -2.4413   -0.1212 H       1  UNL1        0.1564
     17 C          -0.6358    0.9603   -0.0463 C.ar    1  UNL1       -0.0393
     18 C          -1.0881    1.5397    1.1370 C.ar    1  UNL1       -0.1733
     19 C          -1.2732    2.9105    1.2233 C.ar    1  UNL1       -0.1604
     20 C          -1.0036    3.7199    0.1287 C.ar    1  UNL1       -0.1094
     21 C          -0.5417    3.1533   -1.0507 C.ar    1  UNL1       -0.1347
     22 C          -0.3555    1.7820   -1.1367 C.ar    1  UNL1       -0.2227
     23 H          -1.3033    0.9065    1.9888 H       1  UNL1        0.1473
     24 H          -1.6286    3.3476    2.1476 H       1  UNL1        0.1453
     25 H          -1.1497    4.7904    0.1957 H       1  UNL1        0.1484
     26 H          -0.3284    3.7792   -1.9077 H       1  UNL1        0.1472
     27 H          -0.0005    1.3410   -2.0605 H       1  UNL1        0.1452
     28 N           1.9224   -0.1723    0.0331 N.am    1  UNL1       -0.2403
     29 C           3.3144   -0.3469    0.0572 C.ar    1  UNL1        0.2954
     30 C           4.0854    0.7899    0.3099 C.ar    1  UNL1       -0.3093
     31 C           5.4648    0.7078    0.3486 C.ar    1  UNL1       -0.0997
     32 C           6.1013   -0.5081    0.1358 C.ar    1  UNL1       -0.1848
     33 C           5.3356   -1.6352   -0.1150 C.ar    1  UNL1       -0.1132
     34 C           3.9493   -1.5689   -0.1564 C.ar    1  UNL1       -0.2887
     35 H           1.6115    0.7721    0.1967 H       1  UNL1        0.2663
     36 H           3.5967    1.7430    0.4766 H       1  UNL1        0.1471
     37 H           6.0447    1.6003    0.5462 H       1  UNL1        0.1463
     38 H           7.1810   -0.5736    0.1659 H       1  UNL1        0.1437
     39 H           5.8181   -2.5900   -0.2826 H       1  UNL1        0.1443
     40 H           3.3630   -2.4513   -0.3513 H       1  UNL1        0.1647
@<TRIPOS>BOND
     1    27    22    1
     2    26    21    1
     3    22    21   ar
     4    22    17   ar
     5    11     6    1
     6    21    20   ar
     7    12     7    1
     8     6     7   ar
     9     6     5   ar
    10     7     8   ar
    11     3     2    2
    12    40    34    1
    13    39    33    1
    14     2     1    1
    15     2    28   am
    16    34    33   ar
    17    34    29   ar
    18     1     4    2
    19     1    17    1
    20     4    16    1
    21     4     5    1
    22    33    32   ar
    23     5    10   ar
    24    17    18   ar
    25    28    29    1
    26    28    35    1
    27    29    30   ar
    28     8    13    1
    29     8     9   ar
    30    20    25    1
    31    20    19   ar
    32    32    38    1
    33    32    31   ar
    34    30    31   ar
    35    30    36    1
    36    31    37    1
    37    10     9   ar
    38    10    15    1
    39     9    14    1
    40    18    19   ar
    41    18    23    1
    42    19    24    1
