@<TRIPOS>MOLECULE
GS-455-0.out
 23 23 0 0 0
SMALL
MULLIKEN_CHARGES
****
Gaussian 16 # wB97XD def2tzvp, opt=(calcfc, maxcycles=70, maxstep=10), freq=norama
@<TRIPOS>ATOM
      1 C          -2.5464   -0.4446    0.0001 C.2     1  UNL1       -0.3207
      2 C          -1.2436    0.2688    0.0000 C.2     1  UNL1        0.4640
      3 O          -1.1497    1.4870   -0.0001 O.2     1  UNL1       -0.4927
      4 C          -3.6963    0.2199   -0.0000 C.2     1  UNL1       -0.0662
      5 C          -5.0473   -0.4037   -0.0000 C.3     1  UNL1       -0.3309
      6 H          -4.9953   -1.4921    0.0001 H       1  UNL1        0.1300
      7 H          -5.6136   -0.0776    0.8759 H       1  UNL1        0.1397
      8 H          -5.6136   -0.0777   -0.8760 H       1  UNL1        0.1397
      9 H          -3.6530    1.3053   -0.0002 H       1  UNL1        0.1470
     10 H          -2.5391   -1.5298    0.0002 H       1  UNL1        0.1464
     11 N          -0.1691   -0.5728    0.0001 N.am    1  UNL1       -0.2770
     12 C           1.2017   -0.2736    0.0000 C.ar    1  UNL1        0.3060
     13 C           1.7127    1.0234    0.0001 C.ar    1  UNL1       -0.2945
     14 C           3.0875    1.2172    0.0000 C.ar    1  UNL1       -0.1053
     15 C           3.9644    0.1446   -0.0000 C.ar    1  UNL1       -0.1901
     16 C           3.4521   -1.1462   -0.0001 C.ar    1  UNL1       -0.0964
     17 C           2.0854   -1.3553   -0.0000 C.ar    1  UNL1       -0.3029
     18 H          -0.3849   -1.5560    0.0001 H       1  UNL1        0.2614
     19 H           1.0392    1.8643    0.0001 H       1  UNL1        0.1642
     20 H           3.4721    2.2296    0.0001 H       1  UNL1        0.1442
     21 H           5.0339    0.3095   -0.0001 H       1  UNL1        0.1432
     22 H           4.1195   -1.9986   -0.0001 H       1  UNL1        0.1461
     23 H           1.6953   -2.3666   -0.0001 H       1  UNL1        0.1446
@<TRIPOS>BOND
     1     8     5    1
     2     9     4    1
     3    22    16    1
     4     3     2    2
     5    21    15    1
     6    16    15   ar
     7    16    17   ar
     8    23    17    1
     9     4     5    1
    10     4     1    2
    11    15    14   ar
    12    17    12   ar
    13     5     6    1
    14     5     7    1
    15     2     1    1
    16     2    11   am
    17    14    20    1
    18    14    13   ar
    19    12    11    1
    20    12    13   ar
    21     1    10    1
    22    11    18    1
    23    13    19    1
