@<TRIPOS>MOLECULE
GS-4-3.out
 42 44 0 0 0
SMALL
MULLIKEN_CHARGES
****
Gaussian 16 # wB97XD def2tzvp, opt=(maxcycles=70, maxstep=5), freq=noraman, scrf=(
@<TRIPOS>ATOM
      1 C          -0.2418   -0.8710    0.0560 C.2     1  UNL1        0.1693
      2 C           0.5344   -2.1521    0.0783 C.2     1  UNL1        0.2437
      3 O           0.3915   -3.0051    0.9211 O.2     1  UNL1       -0.4007
      4 C           0.3779    0.3199    0.0142 C.2     1  UNL1        0.2426
      5 C          -0.3718    1.5973   -0.1152 C.ar    1  UNL1        0.0319
      6 C          -0.1301    2.6438    0.7720 C.ar    1  UNL1       -0.2146
      7 C          -0.8260    3.8369    0.6607 C.ar    1  UNL1       -0.1588
      8 C          -1.7560    4.0080   -0.3555 C.ar    1  UNL1       -0.1206
      9 C          -1.9851    2.9796   -1.2587 C.ar    1  UNL1       -0.1560
     10 C          -1.2999    1.7813   -1.1374 C.ar    1  UNL1       -0.2176
     11 H           0.6013    2.5170    1.5610 H       1  UNL1        0.1547
     12 H          -0.6391    4.6363    1.3664 H       1  UNL1        0.1428
     13 H          -2.2951    4.9423   -0.4471 H       1  UNL1        0.1459
     14 H          -2.6994    3.1107   -2.0617 H       1  UNL1        0.1422
     15 H          -1.4827    0.9796   -1.8415 H       1  UNL1        0.1571
     16 C           1.8547    0.4488    0.1105 C.ar    1  UNL1        0.0940
     17 C           2.5512    1.2199   -0.8189 C.ar    1  UNL1       -0.2381
     18 C           3.9294    1.3321   -0.7483 C.ar    1  UNL1       -0.1570
     19 C           4.6307    0.6937    0.2667 C.ar    1  UNL1       -0.1259
     20 C           3.9440   -0.0539    1.2111 C.ar    1  UNL1       -0.1437
     21 C           2.5642   -0.1739    1.1344 C.ar    1  UNL1       -0.2415
     22 H           2.0078    1.7243   -1.6087 H       1  UNL1        0.1552
     23 H           4.4591    1.9215   -1.4860 H       1  UNL1        0.1433
     24 H           5.7076    0.7870    0.3250 H       1  UNL1        0.1464
     25 H           4.4810   -0.5412    2.0150 H       1  UNL1        0.1444
     26 H           2.0313   -0.7463    1.8838 H       1  UNL1        0.1573
     27 C          -1.7125   -1.0546    0.1530 C.ar    1  UNL1        0.0736
     28 C          -2.3735   -1.8909   -0.7438 C.ar    1  UNL1       -0.2178
     29 C          -3.7462   -2.0662   -0.6652 C.ar    1  UNL1       -0.1588
     30 C          -4.4750   -1.4165    0.3209 C.ar    1  UNL1       -0.1227
     31 C          -3.8221   -0.5959    1.2301 C.ar    1  UNL1       -0.1599
     32 C          -2.4504   -0.4177    1.1477 C.ar    1  UNL1       -0.2125
     33 H          -1.8117   -2.3987   -1.5194 H       1  UNL1        0.1467
     34 H          -4.2473   -2.7109   -1.3761 H       1  UNL1        0.1434
     35 H          -5.5470   -1.5538    0.3842 H       1  UNL1        0.1457
     36 H          -4.3824   -0.0945    2.0091 H       1  UNL1        0.1422
     37 H          -1.9441    0.2228    1.8586 H       1  UNL1        0.1575
     38 O           1.3651   -2.2683   -0.9524 O.3     1  UNL1       -0.2623
     39 C           2.2098   -3.4211   -0.9610 C.3     1  UNL1       -0.2078
     40 H           2.8022   -3.3448   -1.8676 H       1  UNL1        0.1500
     41 H           2.8572   -3.4167   -0.0840 H       1  UNL1        0.1434
     42 H           1.6142   -4.3328   -0.9710 H       1  UNL1        0.1433
@<TRIPOS>BOND
     1    14     9    1
     2    40    39    1
     3    15    10    1
     4    22    17    1
     5    33    28    1
     6    23    18    1
     7    34    29    1
     8     9    10   ar
     9     9     8   ar
    10    10     5   ar
    11    42    39    1
    12    39    38    1
    13    39    41    1
    14    38     2    1
    15    17    18   ar
    16    17    16   ar
    17    18    19   ar
    18    28    29   ar
    19    28    27   ar
    20    29    30   ar
    21    13     8    1
    22     8     7   ar
    23     5     4    1
    24     5     6   ar
    25     4     1    2
    26     4    16    1
    27     1     2    1
    28     1    27    1
    29     2     3    2
    30    16    21   ar
    31    27    32   ar
    32    19    24    1
    33    19    20   ar
    34    30    35    1
    35    30    31   ar
    36     7     6   ar
    37     7    12    1
    38     6    11    1
    39    21    20   ar
    40    21    26    1
    41    32    31   ar
    42    32    37    1
    43    20    25    1
    44    31    36    1
