@<TRIPOS>MOLECULE
GS-429-0.out
 26 26 0 0 0
SMALL
MULLIKEN_CHARGES
****
Gaussian 16 # wB97XD def2tzvp, opt=(calcfc, maxcycles=70, maxstep=10), freq=norama
@<TRIPOS>ATOM
      1 C           0.9652   -0.1341    0.0200 C.2     1  UNL1       -0.0255
      2 C           0.6210    1.3272    0.1403 C.2     1  UNL1        0.2649
      3 O           0.9802    1.9949    1.0996 O.2     1  UNL1       -0.4682
      4 C           0.0802   -1.1294   -0.0223 C.2     1  UNL1        0.0068
      5 C           0.4202   -2.5840   -0.1259 C.3     1  UNL1       -0.3380
      6 H          -0.1199   -3.0334   -0.9613 H       1  UNL1        0.1454
      7 H           1.4837   -2.7583   -0.2640 H       1  UNL1        0.1356
      8 H           0.0909   -3.0998    0.7791 H       1  UNL1        0.1499
      9 C          -1.3748   -0.8164    0.0775 C.ar    1  UNL1        0.0999
     10 C          -2.2462   -1.1927   -0.9425 C.ar    1  UNL1       -0.2107
     11 C          -3.5968   -0.8941   -0.8580 C.ar    1  UNL1       -0.1487
     12 C          -4.0967   -0.2301    0.2537 C.ar    1  UNL1       -0.1316
     13 C          -3.2381    0.1335    1.2805 C.ar    1  UNL1       -0.1559
     14 C          -1.8852   -0.1579    1.1933 C.ar    1  UNL1       -0.1838
     15 H          -1.8644   -1.7041   -1.8176 H       1  UNL1        0.1556
     16 H          -4.2605   -1.1799   -1.6641 H       1  UNL1        0.1461
     17 H          -5.1523    0.0000    0.3200 H       1  UNL1        0.1473
     18 H          -3.6211    0.6450    2.1543 H       1  UNL1        0.1460
     19 H          -1.2177    0.1261    1.9972 H       1  UNL1        0.1549
     20 BR          2.8459   -0.4160    0.0061 Br      1  UNL1       -0.0739
     21 N          -0.0809    1.8283   -0.8846 N.am    1  UNL1       -0.2722
     22 C          -0.5937    3.1804   -0.8711 C.3     1  UNL1       -0.2533
     23 H          -0.3731    1.2039   -1.6155 H       1  UNL1        0.2794
     24 H          -1.0468    3.3899   -1.8365 H       1  UNL1        0.1506
     25 H          -1.3449    3.3071   -0.0885 H       1  UNL1        0.1392
     26 H           0.2137    3.8904   -0.6945 H       1  UNL1        0.1403
@<TRIPOS>BOND
     1    24    22    1
     2    15    10    1
     3    16    11    1
     4    23    21    1
     5     6     5    1
     6    10    11   ar
     7    10     9   ar
     8    21    22    1
     9    21     2   am
    10    22    26    1
    11    22    25    1
    12    11    12   ar
    13     7     5    1
    14     5     4    1
    15     5     8    1
    16     4     1    2
    17     4     9    1
    18    20     1    1
    19     1     2    1
    20     9    14   ar
    21     2     3    2
    22    12    17    1
    23    12    13   ar
    24    14    13   ar
    25    14    19    1
    26    13    18    1
