@<TRIPOS>MOLECULE
GS-400-0.out
 18 18 0 0 0
SMALL
MULLIKEN_CHARGES
****
Gaussian 16 # wB97XD def2tzvp, opt=(calcfc, maxcycles=70, maxstep=8), freq=noraman
@<TRIPOS>ATOM
      1 C          -1.5640   -0.3185   -0.0759 C.2     1  UNL1       -0.0165
      2 C          -0.3740   -0.5166    0.8393 C.2     1  UNL1        0.3428
      3 O          -0.5764   -0.8749    1.9758 O.2     1  UNL1       -0.3548
      4 C          -2.1208    0.8407   -0.3769 C.2     1  UNL1       -0.1091
      5 H          -3.0036    0.9361   -0.9915 H       1  UNL1        0.2007
      6 CL         -1.4810    2.3323    0.2034 Cl      1  UNL1       -0.0618
      7 CL         -2.2383   -1.7940   -0.6771 Cl      1  UNL1       -0.0619
      8 C           0.9804   -0.2858    0.2875 C.ar    1  UNL1        0.0381
      9 C           2.0777   -0.3831    1.1440 C.ar    1  UNL1       -0.2053
     10 C           3.3550   -0.1796    0.6581 C.ar    1  UNL1       -0.1186
     11 C           3.5465    0.1163   -0.6869 C.ar    1  UNL1       -0.1195
     12 C           2.4602    0.2101   -1.5444 C.ar    1  UNL1       -0.1425
     13 C           1.1779    0.0125   -1.0591 C.ar    1  UNL1       -0.1833
     14 H           1.9133   -0.6158    2.1877 H       1  UNL1        0.1530
     15 H           4.2049   -0.2508    1.3240 H       1  UNL1        0.1531
     16 H           4.5479    0.2744   -1.0666 H       1  UNL1        0.1552
     17 H           2.6113    0.4388   -2.5909 H       1  UNL1        0.1533
     18 H           0.3327    0.0883   -1.7309 H       1  UNL1        0.1771
@<TRIPOS>BOND
     1    17    12    1
     2    18    13    1
     3    12    13   ar
     4    12    11   ar
     5    16    11    1
     6    13     8   ar
     7     5     4    1
     8    11    10   ar
     9     7     1    1
    10     4     1    2
    11     4     6    1
    12     1     2    1
    13     8     2    1
    14     8     9   ar
    15    10     9   ar
    16    10    15    1
    17     2     3    2
    18     9    14    1
