@<TRIPOS>MOLECULE
GS-437-0.out
 26 26 0 0 0
SMALL
MULLIKEN_CHARGES
****
Gaussian 16 # wB97XD def2tzvp, opt=(calcfc, maxcycles=70, maxstep=10), freq=norama
@<TRIPOS>ATOM
      1 C           1.4185   -0.3783    0.0166 C.2     1  UNL1        0.0392
      2 C           1.2728    1.1178    0.1244 C.2     1  UNL1        0.2412
      3 O           1.7587    1.7405    1.0577 O.2     1  UNL1       -0.4677
      4 C           0.4139   -1.2538   -0.0190 C.2     1  UNL1       -0.0006
      5 C           0.5865   -2.7387   -0.1112 C.3     1  UNL1       -0.3463
      6 H           0.0089   -3.1290   -0.9512 H       1  UNL1        0.1451
      7 H           1.6252   -3.0316   -0.2360 H       1  UNL1        0.1321
      8 H           0.1910   -3.2091    0.7920 H       1  UNL1        0.1494
      9 C          -0.9918   -0.7693    0.0795 C.ar    1  UNL1        0.0983
     10 C          -1.9102   -1.0650   -0.9258 C.ar    1  UNL1       -0.2082
     11 C          -3.2162   -0.6089   -0.8409 C.ar    1  UNL1       -0.1486
     12 C          -3.6259    0.1349    0.2570 C.ar    1  UNL1       -0.1316
     13 C          -2.7220    0.4197    1.2697 C.ar    1  UNL1       -0.1559
     14 C          -1.4135   -0.0302    1.1821 C.ar    1  UNL1       -0.1792
     15 H          -1.5986   -1.6382   -1.7904 H       1  UNL1        0.1551
     16 H          -3.9157   -0.8345   -1.6358 H       1  UNL1        0.1460
     17 H          -4.6469    0.4881    0.3237 H       1  UNL1        0.1473
     18 H          -3.0352    0.9926    2.1332 H       1  UNL1        0.1460
     19 H          -0.7111    0.1916    1.9760 H       1  UNL1        0.1548
     20 CL          3.0916   -0.8682    0.0134 Cl      1  UNL1       -0.1031
     21 N           0.6005    1.6977   -0.8779 N.am    1  UNL1       -0.2715
     22 C           0.2703    3.1055   -0.8615 C.3     1  UNL1       -0.2514
     23 H           0.2039    1.1125   -1.5918 H       1  UNL1        0.2798
     24 H          -0.2157    3.3595   -1.7998 H       1  UNL1        0.1506
     25 H          -0.4043    3.3392   -0.0349 H       1  UNL1        0.1390
     26 H           1.1723    3.7074   -0.7531 H       1  UNL1        0.1403
@<TRIPOS>BOND
     1    24    22    1
     2    15    10    1
     3    16    11    1
     4    23    21    1
     5     6     5    1
     6    10    11   ar
     7    10     9   ar
     8    21    22    1
     9    21     2   am
    10    22    26    1
    11    22    25    1
    12    11    12   ar
    13     7     5    1
    14     5     4    1
    15     5     8    1
    16     4     1    2
    17     4     9    1
    18    20     1    1
    19     1     2    1
    20     9    14   ar
    21     2     3    2
    22    12    17    1
    23    12    13   ar
    24    14    13   ar
    25    14    19    1
    26    13    18    1
