@<TRIPOS>MOLECULE
GS-484-0.out
 28 28 0 0 0
SMALL
MULLIKEN_CHARGES
****
Gaussian 16 # wB97XD def2tzvp, opt=(calcfc, maxcycles=70, maxstep=10), freq=norama
@<TRIPOS>ATOM
      1 C           0.6596    0.4381    0.0648 C.2     1  UNL1       -0.0556
      2 C           1.5505   -0.7538    0.0984 C.2     1  UNL1        0.3891
      3 O           2.6482   -0.8109    0.6035 O.2     1  UNL1       -0.4336
      4 C           1.1590    1.6854    0.0351 C.2     1  UNL1        0.0696
      5 C           0.2736    2.8968    0.0638 C.3     1  UNL1       -0.3844
      6 H           0.6858    3.6280    0.7630 H       1  UNL1        0.1461
      7 H           0.2638    3.3744   -0.9198 H       1  UNL1        0.1515
      8 H          -0.7515    2.6736    0.3478 H       1  UNL1        0.1458
      9 C           2.6186    2.0249   -0.0385 C.3     1  UNL1       -0.3732
     10 H           2.7516    2.9010   -0.6765 H       1  UNL1        0.1358
     11 H           2.9829    2.2979    0.9559 H       1  UNL1        0.1475
     12 H           3.2354    1.2118   -0.4071 H       1  UNL1        0.1380
     13 C          -0.8059    0.1598    0.0556 C.ar    1  UNL1        0.1750
     14 C          -1.5854    0.4636   -1.0567 C.ar    1  UNL1       -0.2616
     15 C          -2.9483    0.2052   -1.0591 C.ar    1  UNL1       -0.1299
     16 C          -3.5507   -0.3650    0.0530 C.ar    1  UNL1       -0.1456
     17 C          -2.7817   -0.6762    1.1659 C.ar    1  UNL1       -0.1425
     18 C          -1.4195   -0.4177    1.1645 C.ar    1  UNL1       -0.2230
     19 H          -1.1172    0.9083   -1.9265 H       1  UNL1        0.1460
     20 H          -3.5402    0.4491   -1.9325 H       1  UNL1        0.1426
     21 H          -4.6144   -0.5669    0.0527 H       1  UNL1        0.1446
     22 H          -3.2440   -1.1205    2.0385 H       1  UNL1        0.1425
     23 H          -0.8244   -0.6629    2.0366 H       1  UNL1        0.1414
     24 O           0.9830   -1.8071   -0.4985 O.3     1  UNL1       -0.2785
     25 C           1.7312   -3.0215   -0.4929 C.3     1  UNL1       -0.2079
     26 H           1.1076   -3.7541   -0.9971 H       1  UNL1        0.1453
     27 H           2.6720   -2.8952   -1.0278 H       1  UNL1        0.1371
     28 H           1.9364   -3.3395    0.5289 H       1  UNL1        0.1377
@<TRIPOS>BOND
     1    20    15    1
     2    19    14    1
     3    15    14   ar
     4    15    16   ar
     5    14    13   ar
     6    27    25    1
     7    26    25    1
     8     7     5    1
     9    10     9    1
    10    24    25    1
    11    24     2    1
    12    25    28    1
    13    12     9    1
    14     9     4    1
    15     9    11    1
    16     4     5    1
    17     4     1    2
    18    21    16    1
    19    16    17   ar
    20    13     1    1
    21    13    18   ar
    22     5     8    1
    23     5     6    1
    24     1     2    1
    25     2     3    2
    26    18    17   ar
    27    18    23    1
    28    17    22    1
