@<TRIPOS>MOLECULE
GS-428-0.out
 25 25 0 0 0
SMALL
MULLIKEN_CHARGES
****
Gaussian 16 # wB97XD def2tzvp, opt=(calcfc, maxcycles=70, maxstep=10), freq=norama
@<TRIPOS>ATOM
      1 C           0.9747   -0.1208   -0.0040 C.2     1  UNL1       -0.0391
      2 C           0.6259    1.3328    0.0778 C.2     1  UNL1        0.3370
      3 O           1.0519    2.0810    0.9206 O.2     1  UNL1       -0.3958
      4 C           0.0857   -1.1143   -0.0314 C.2     1  UNL1       -0.0056
      5 C           0.4308   -2.5688   -0.1010 C.3     1  UNL1       -0.3315
      6 H          -0.1419   -3.0457   -0.8983 H       1  UNL1        0.1473
      7 H           1.4887   -2.7433   -0.2758 H       1  UNL1        0.1371
      8 H           0.1403   -3.0561    0.8327 H       1  UNL1        0.1522
      9 C          -1.3674   -0.8038    0.0736 C.ar    1  UNL1        0.2138
     10 C          -2.2512   -1.2140   -0.9220 C.ar    1  UNL1       -0.2367
     11 C          -3.6013   -0.9198   -0.8248 C.ar    1  UNL1       -0.1486
     12 C          -4.0885   -0.2274    0.2758 C.ar    1  UNL1       -0.1377
     13 C          -3.2176    0.1680    1.2795 C.ar    1  UNL1       -0.1432
     14 C          -1.8644   -0.1196    1.1795 C.ar    1  UNL1       -0.2305
     15 H          -1.8797   -1.7461   -1.7890 H       1  UNL1        0.1551
     16 H          -4.2757   -1.2310   -1.6123 H       1  UNL1        0.1460
     17 H          -5.1444   -0.0013    0.3514 H       1  UNL1        0.1474
     18 H          -3.5902    0.6999    2.1456 H       1  UNL1        0.1467
     19 H          -1.1885    0.1835    1.9699 H       1  UNL1        0.1616
     20 BR          2.8524   -0.4036    0.0213 Br      1  UNL1       -0.0634
     21 O          -0.1900    1.6986   -0.9004 O.3     1  UNL1       -0.2562
     22 C          -0.6791    3.0424   -0.8502 C.3     1  UNL1       -0.1988
     23 H          -1.3286    3.1492   -1.7134 H       1  UNL1        0.1518
     24 H          -1.2407    3.2009    0.0700 H       1  UNL1        0.1448
     25 H           0.1464    3.7505   -0.9036 H       1  UNL1        0.1461
@<TRIPOS>BOND
     1    15    10    1
     2    23    22    1
     3    16    11    1
     4    10    11   ar
     5    10     9   ar
     6    25    22    1
     7    21    22    1
     8    21     2    1
     9     6     5    1
    10    22    24    1
    11    11    12   ar
    12     7     5    1
    13     5     4    1
    14     5     8    1
    15     4     1    2
    16     4     9    1
    17     1    20    1
    18     1     2    1
    19     9    14   ar
    20     2     3    2
    21    12    17    1
    22    12    13   ar
    23    14    13   ar
    24    14    19    1
    25    13    18    1
