@<TRIPOS>MOLECULE
GS-413-0.out
 26 26 0 0 0
SMALL
MULLIKEN_CHARGES
****
Gaussian 16 # wB97XD def2tzvp, opt=(calcfc, maxcycles=70, maxstep=10), freq=norama
@<TRIPOS>ATOM
      1 C          -1.4584    1.3821    0.0063 C.2     1  UNL1       -0.2369
      2 C          -2.1255    0.0509    0.0642 C.2     1  UNL1        0.3352
      3 O          -3.0754   -0.1363    0.8214 O.2     1  UNL1       -0.5066
      4 C          -0.1484    1.6349    0.0013 C.2     1  UNL1        0.0639
      5 C           0.3692    3.0436   -0.0412 C.3     1  UNL1       -0.3447
      6 H           1.0149    3.1877   -0.9106 H       1  UNL1        0.1398
      7 H          -0.4428    3.7678   -0.0894 H       1  UNL1        0.1316
      8 H           0.9779    3.2498    0.8423 H       1  UNL1        0.1416
      9 C           0.8858    0.5681    0.0815 C.ar    1  UNL1        0.0587
     10 C           1.8599    0.4469   -0.9074 C.ar    1  UNL1       -0.2001
     11 C           2.8162   -0.5552   -0.8359 C.ar    1  UNL1       -0.1533
     12 C           2.8230   -1.4377    0.2344 C.ar    1  UNL1       -0.1309
     13 C           1.8669   -1.3142    1.2329 C.ar    1  UNL1       -0.1543
     14 C           0.9053   -0.3194    1.1558 C.ar    1  UNL1       -0.1823
     15 H           1.8607    1.1279   -1.7497 H       1  UNL1        0.1517
     16 H           3.5579   -0.6457   -1.6193 H       1  UNL1        0.1451
     17 H           3.5723   -2.2169    0.2920 H       1  UNL1        0.1466
     18 H           1.8693   -1.9946    2.0750 H       1  UNL1        0.1445
     19 H           0.1589   -0.2263    1.9353 H       1  UNL1        0.1527
     20 H          -2.1571    2.2111    0.0321 H       1  UNL1        0.1480
     21 N          -1.6744   -0.9015   -0.7688 N.am    1  UNL1       -0.2842
     22 C          -2.1772   -2.2557   -0.7355 C.3     1  UNL1       -0.2545
     23 H          -0.8717   -0.6988   -1.3374 H       1  UNL1        0.2713
     24 H          -3.2569   -2.2687   -0.8857 H       1  UNL1        0.1354
     25 H          -1.7034   -2.8221   -1.5334 H       1  UNL1        0.1469
     26 H          -1.9569   -2.7366    0.2203 H       1  UNL1        0.1345
@<TRIPOS>BOND
     1    15    10    1
     2    16    11    1
     3    25    22    1
     4    23    21    1
     5     6     5    1
     6    10    11   ar
     7    10     9   ar
     8    24    22    1
     9    11    12   ar
    10    21    22    1
    11    21     2   am
    12    22    26    1
    13     7     5    1
    14     5     4    1
    15     5     8    1
    16     4     1    2
    17     4     9    1
    18     1    20    1
    19     1     2    1
    20     2     3    2
    21     9    14   ar
    22    12    17    1
    23    12    13   ar
    24    14    13   ar
    25    14    19    1
    26    13    18    1
