@<TRIPOS>MOLECULE
GS-462-0.out
 22 21 0 0 0
SMALL
MULLIKEN_CHARGES
****
Gaussian 16 # wB97XD def2tzvp, opt=(calcfc, maxcycles=70, maxstep=10), freq=norama
@<TRIPOS>ATOM
      1 C          -0.9009    0.3763    0.0925 C.2     1  UNL1       -0.1066
      2 C           0.5554    0.6220   -0.1908 C.2     1  UNL1        0.3214
      3 O           0.8968    1.7073   -0.6605 O.2     1  UNL1       -0.5135
      4 C          -1.5217   -0.6142   -0.5440 C.2     1  UNL1       -0.1265
      5 C          -2.9742   -0.9609   -0.5097 C.3     1  UNL1       -0.3312
      6 H          -3.3910   -0.9436   -1.5196 H       1  UNL1        0.1350
      7 H          -3.1082   -1.9782   -0.1327 H       1  UNL1        0.1339
      8 H          -3.5619   -0.2885    0.1121 H       1  UNL1        0.1155
      9 H          -0.9141   -1.2610   -1.1721 H       1  UNL1        0.1472
     10 C          -1.5317    1.3895    1.0008 C.3     1  UNL1       -0.3464
     11 H          -1.3703    2.3961    0.6120 H       1  UNL1        0.1363
     12 H          -2.6011    1.2319    1.1189 H       1  UNL1        0.1172
     13 H          -1.0713    1.3495    1.9917 H       1  UNL1        0.1364
     14 N           1.4452   -0.3638    0.0536 N.am    1  UNL1       -0.1108
     15 C           2.8303   -0.1845   -0.3345 C.3     1  UNL1       -0.2880
     16 C           1.1780   -1.5580    0.8329 C.3     1  UNL1       -0.3037
     17 H           2.8986    0.5619   -1.1199 H       1  UNL1        0.1451
     18 H           3.4384    0.1380    0.5155 H       1  UNL1        0.1416
     19 H           3.2226   -1.1345   -0.7000 H       1  UNL1        0.1410
     20 H           0.2012   -1.5033    1.3010 H       1  UNL1        0.1662
     21 H           1.2200   -2.4510    0.2045 H       1  UNL1        0.1462
     22 H           1.9359   -1.6505    1.6140 H       1  UNL1        0.1439
@<TRIPOS>BOND
     1     6     5    1
     2     9     4    1
     3    17    15    1
     4    19    15    1
     5     3     2    2
     6     4     5    1
     7     4     1    2
     8     5     7    1
     9     5     8    1
    10    15    14    1
    11    15    18    1
    12     2    14   am
    13     2     1    1
    14    14    16    1
    15     1    10    1
    16    21    16    1
    17    11    10    1
    18    16    20    1
    19    16    22    1
    20    10    12    1
    21    10    13    1
