@<TRIPOS>MOLECULE
GS-447-2.out
 33 34 0 0 0
SMALL
MULLIKEN_CHARGES
****
Gaussian 16 # wB97XD def2tzvp, opt=(calcfc, maxcycles=70, maxstep=10), freq=norama
@<TRIPOS>ATOM
      1 C          -1.3523    1.2404    0.0189 C.2     1  UNL1       -0.0273
      2 C           0.1457    1.3796    0.0394 C.2     1  UNL1        0.3941
      3 O           0.7012    2.4649    0.1079 O.2     1  UNL1       -0.4907
      4 C          -2.0734    2.3606   -0.0211 C.2     1  UNL1       -0.0666
      5 C          -3.5578    2.4627   -0.0417 C.3     1  UNL1       -0.3455
      6 H          -3.8988    3.0858    0.7886 H       1  UNL1        0.1430
      7 H          -3.8859    2.9598   -0.9582 H       1  UNL1        0.1435
      8 H          -4.0469    1.4921    0.0222 H       1  UNL1        0.1397
      9 H          -1.5211    3.2948   -0.0349 H       1  UNL1        0.1502
     10 C          -1.9674   -0.1162    0.0306 C.ar    1  UNL1       -0.0273
     11 C          -2.4634   -0.6790   -1.1431 C.ar    1  UNL1       -0.1890
     12 C          -3.0342   -1.9431   -1.1335 C.ar    1  UNL1       -0.1482
     13 C          -3.1127   -2.6623    0.0504 C.ar    1  UNL1       -0.1184
     14 C          -2.6189   -2.1120    1.2247 C.ar    1  UNL1       -0.1430
     15 C          -2.0492   -0.8477    1.2143 C.ar    1  UNL1       -0.2046
     16 H          -2.4010   -0.1181   -2.0677 H       1  UNL1        0.1448
     17 H          -3.4176   -2.3667   -2.0530 H       1  UNL1        0.1452
     18 H          -3.5571   -3.6493    0.0580 H       1  UNL1        0.1477
     19 H          -2.6792   -2.6668    2.1523 H       1  UNL1        0.1459
     20 H          -1.6643   -0.4198    2.1323 H       1  UNL1        0.1452
     21 N           0.8154    0.1967   -0.0353 N.am    1  UNL1       -0.2452
     22 C           2.1962   -0.0508   -0.0395 C.ar    1  UNL1        0.2931
     23 C           2.5959   -1.3851   -0.1443 C.ar    1  UNL1       -0.3089
     24 C           3.9378   -1.7175   -0.1527 C.ar    1  UNL1       -0.0998
     25 C           4.9065   -0.7270   -0.0567 C.ar    1  UNL1       -0.1861
     26 C           4.5093    0.5963    0.0472 C.ar    1  UNL1       -0.1125
     27 C           3.1656    0.9460    0.0569 C.ar    1  UNL1       -0.2883
     28 H           0.2370   -0.6261   -0.0973 H       1  UNL1        0.2651
     29 H           1.8466   -2.1647   -0.2197 H       1  UNL1        0.1467
     30 H           4.2268   -2.7576   -0.2347 H       1  UNL1        0.1460
     31 H           5.9571   -0.9859   -0.0633 H       1  UNL1        0.1433
     32 H           5.2534    1.3794    0.1229 H       1  UNL1        0.1439
     33 H           2.8668    1.9779    0.1377 H       1  UNL1        0.1640
@<TRIPOS>BOND
     1    16    11    1
     2    17    12    1
     3    11    12   ar
     4    11    10   ar
     5    12    13   ar
     6     7     5    1
     7    30    24    1
     8    29    23    1
     9    24    23   ar
    10    24    25   ar
    11    23    22   ar
    12    28    21    1
    13    31    25    1
    14    25    26   ar
    15     5     4    1
    16     5     8    1
    17     5     6    1
    18    22    21    1
    19    22    27   ar
    20    21     2   am
    21     9     4    1
    22     4     1    2
    23     1    10    1
    24     1     2    1
    25    10    15   ar
    26     2     3    2
    27    26    27   ar
    28    26    32    1
    29    13    18    1
    30    13    14   ar
    31    27    33    1
    32    15    14   ar
    33    15    20    1
    34    14    19    1
