@<TRIPOS>MOLECULE
GS-478-1.out
 19 18 0 0 0
SMALL
MULLIKEN_CHARGES
****
Gaussian 16 # wB97XD def2tzvp, opt=(calcfc, maxcycles=70, maxstep=1), freq=noraman
@<TRIPOS>ATOM
      1 C           0.7447   -0.2078   -0.1027 C.2     1  UNL1       -0.0690
      2 C          -0.6814   -0.6496   -0.3132 C.2     1  UNL1        0.3316
      3 O          -0.9075   -1.6250   -1.0208 O.2     1  UNL1       -0.4869
      4 C           1.6362   -0.9453    0.5391 C.2     1  UNL1       -0.1367
      5 C           3.0769   -0.6511    0.7672 C.3     1  UNL1       -0.3284
      6 H           3.6917   -1.4411    0.3299 H       1  UNL1        0.1437
      7 H           3.3772    0.3029    0.3386 H       1  UNL1        0.1269
      8 H           3.2908   -0.6386    1.8380 H       1  UNL1        0.1437
      9 H           1.2569   -1.8770    0.9485 H       1  UNL1        0.1643
     10 CL          1.1438    1.3135   -0.8657 Cl      1  UNL1       -0.1078
     11 N          -1.6459    0.0725    0.2830 N.am    1  UNL1       -0.1015
     12 C          -3.0383   -0.2339    0.0207 C.3     1  UNL1       -0.2838
     13 C          -1.4091    1.1180    1.2592 C.3     1  UNL1       -0.3001
     14 H          -3.1150   -0.8400   -0.8766 H       1  UNL1        0.1480
     15 H          -3.4800   -0.7784    0.8591 H       1  UNL1        0.1468
     16 H          -3.5890    0.6974   -0.1188 H       1  UNL1        0.1437
     17 H          -0.3704    1.1268    1.5755 H       1  UNL1        0.1666
     18 H          -1.6679    2.0967    0.8494 H       1  UNL1        0.1518
     19 H          -2.0307    0.9320    2.1369 H       1  UNL1        0.1471
@<TRIPOS>BOND
     1     3     2    2
     2    14    12    1
     3    10     1    1
     4     2     1    1
     5     2    11   am
     6    16    12    1
     7     1     4    2
     8    12    11    1
     9    12    15    1
    10    11    13    1
    11     6     5    1
    12     7     5    1
    13     4     5    1
    14     4     9    1
    15     5     8    1
    16    18    13    1
    17    13    17    1
    18    13    19    1
