@<TRIPOS>MOLECULE
GS-466-0.out
 14 13 0 0 0
SMALL
MULLIKEN_CHARGES
****
Gaussian 16 # wB97XD def2tzvp, opt=(calcfc, maxcycles=70, maxstep=10), freq=norama
@<TRIPOS>ATOM
      1 C           0.1694    0.5070   -0.0000 C.2     1  UNL1       -0.1056
      2 C           1.6647    0.3582   -0.0000 C.2     1  UNL1        0.2885
      3 O           2.3569    1.3532   -0.0003 O.2     1  UNL1       -0.3970
      4 C          -0.3934    1.7125    0.0001 C.2     1  UNL1       -0.0582
      5 C          -1.8304    2.0766    0.0002 C.3     1  UNL1       -0.3267
      6 H          -2.4878    1.2104    0.0003 H       1  UNL1        0.1344
      7 H          -2.0505    2.6921    0.8758 H       1  UNL1        0.1487
      8 H          -2.0507    2.6920   -0.8755 H       1  UNL1        0.1487
      9 H           0.3165    2.5342    0.0001 H       1  UNL1        0.1676
     10 BR         -0.8889   -1.0778   -0.0001 Br      1  UNL1       -0.0867
     11 C           2.2710   -1.0141    0.0003 C.3     1  UNL1       -0.3737
     12 H           1.9441   -1.5754   -0.8767 H       1  UNL1        0.1591
     13 H           3.3540   -0.9239    0.0003 H       1  UNL1        0.1416
     14 H           1.9441   -1.5749    0.8777 H       1  UNL1        0.1591
@<TRIPOS>BOND
     1    12    11    1
     2     8     5    1
     3     3     2    2
     4    10     1    1
     5     2     1    1
     6     2    11    1
     7     1     4    2
     8     4     9    1
     9     4     5    1
    10     5     6    1
    11     5     7    1
    12    13    11    1
    13    11    14    1
