@<TRIPOS>MOLECULE
GS-42-1.out
 31 32 0 0 0
SMALL
MULLIKEN_CHARGES
****
Gaussian 16 # wB97XD def2tzvp, opt=(maxcycles=70, maxstep=1), freq=noraman, scrf=(
@<TRIPOS>ATOM
      1 C          -0.7690    1.0946   -0.0667 C.2     1  UNL1        0.0074
      2 C          -1.7867    2.1999   -0.0398 C.2     1  UNL1        0.2580
      3 O          -1.4799    3.3517   -0.2742 O.2     1  UNL1       -0.4102
      4 C           0.5202    1.4589   -0.0989 C.2     1  UNL1       -0.1662
      5 C           1.7342    0.6369   -0.1101 C.ar    1  UNL1        0.2263
      6 C           1.7909   -0.6752   -0.5897 C.ar    1  UNL1       -0.2178
      7 C           2.9829   -1.3796   -0.5733 C.ar    1  UNL1       -0.1560
      8 C           4.1390   -0.7950   -0.0736 C.ar    1  UNL1       -0.1289
      9 C           4.1012    0.5105    0.3940 C.ar    1  UNL1       -0.1500
     10 C           2.9127    1.2207    0.3636 C.ar    1  UNL1       -0.2296
     11 H           0.9051   -1.1452   -0.9920 H       1  UNL1        0.1801
     12 H           3.0099   -2.3921   -0.9557 H       1  UNL1        0.1436
     13 H           5.0671   -1.3522   -0.0586 H       1  UNL1        0.1478
     14 H           4.9995    0.9789    0.7754 H       1  UNL1        0.1455
     15 H           2.8899    2.2445    0.7181 H       1  UNL1        0.1432
     16 H           0.6994    2.5300   -0.0896 H       1  UNL1        0.1493
     17 C          -1.2441   -0.3109    0.0227 C.ar    1  UNL1        0.0717
     18 C          -1.0752   -1.0356    1.1994 C.ar    1  UNL1       -0.1954
     19 C          -1.5025   -2.3517    1.2842 C.ar    1  UNL1       -0.1506
     20 C          -2.1063   -2.9595    0.1925 C.ar    1  UNL1       -0.1205
     21 C          -2.2856   -2.2424   -0.9819 C.ar    1  UNL1       -0.1502
     22 C          -1.8602   -0.9252   -1.0643 C.ar    1  UNL1       -0.2209
     23 H          -0.5976   -0.5636    2.0494 H       1  UNL1        0.1451
     24 H          -1.3623   -2.9041    2.2048 H       1  UNL1        0.1436
     25 H          -2.4375   -3.9881    0.2571 H       1  UNL1        0.1463
     26 H          -2.7557   -2.7100   -1.8377 H       1  UNL1        0.1442
     27 H          -1.9945   -0.3713   -1.9859 H       1  UNL1        0.1528
     28 C          -3.2045    1.8324    0.3033 C.3     1  UNL1       -0.3573
     29 H          -3.2370    1.2158    1.2030 H       1  UNL1        0.1517
     30 H          -3.7936    2.7357    0.4403 H       1  UNL1        0.1399
     31 H          -3.6365    1.2348   -0.5023 H       1  UNL1        0.1569
@<TRIPOS>BOND
     1    27    22    1
     2    26    21    1
     3    22    21   ar
     4    22    17   ar
     5    11     6    1
     6    21    20   ar
     7    12     7    1
     8     6     7   ar
     9     6     5   ar
    10     7     8   ar
    11    31    28    1
    12     3     2    2
    13     5     4    1
    14     5    10   ar
    15     4    16    1
    16     4     1    2
    17     8    13    1
    18     8     9   ar
    19     1     2    1
    20     1    17    1
    21     2    28    1
    22    17    18   ar
    23    20    25    1
    24    20    19   ar
    25    28    30    1
    26    28    29    1
    27    10     9   ar
    28    10    15    1
    29     9    14    1
    30    18    19   ar
    31    18    23    1
    32    19    24    1
