@<TRIPOS>MOLECULE
GS-438-0.out
 29 29 0 0 0
SMALL
MULLIKEN_CHARGES
****
Gaussian 16 # wB97XD def2tzvp, opt=(calcfc, maxcycles=70, maxstep=10), freq=norama
@<TRIPOS>ATOM
      1 C          -1.3453   -0.5445   -0.1413 C.2     1  UNL1        0.0131
      2 C          -1.2623    0.9348   -0.4223 C.2     1  UNL1        0.2046
      3 O          -1.6233    1.3494   -1.5188 O.2     1  UNL1       -0.4768
      4 C          -0.3087   -1.3744   -0.0457 C.2     1  UNL1       -0.0380
      5 C          -0.4219   -2.8544    0.1565 C.3     1  UNL1       -0.3486
      6 H           0.0734   -3.1451    1.0854 H       1  UNL1        0.1443
      7 H          -1.4542   -3.1907    0.1974 H       1  UNL1        0.1318
      8 H           0.0902   -3.3761   -0.6546 H       1  UNL1        0.1479
      9 C           1.0741   -0.8292   -0.1406 C.ar    1  UNL1        0.2325
     10 C           1.9853   -1.0556    0.8902 C.ar    1  UNL1       -0.2758
     11 C           3.2712   -0.5449    0.8191 C.ar    1  UNL1       -0.1278
     12 C           3.6704    0.1886   -0.2896 C.ar    1  UNL1       -0.1414
     13 C           2.7758    0.4061   -1.3266 C.ar    1  UNL1       -0.1477
     14 C           1.4869   -0.1007   -1.2536 C.ar    1  UNL1       -0.2041
     15 H           1.6820   -1.6173    1.7650 H       1  UNL1        0.1549
     16 H           3.9629   -0.7183    1.6337 H       1  UNL1        0.1453
     17 H           4.6759    0.5857   -0.3457 H       1  UNL1        0.1464
     18 H           3.0809    0.9700   -2.1990 H       1  UNL1        0.1448
     19 H           0.7936    0.0683   -2.0677 H       1  UNL1        0.1502
     20 CL         -3.0012   -1.0898   -0.0691 Cl      1  UNL1       -0.1035
     21 N          -0.7938    1.7295    0.5547 N.am    1  UNL1       -0.0800
     22 C          -0.5726    3.1373    0.2887 C.3     1  UNL1       -0.2799
     23 C          -0.4634    1.2989    1.8987 C.3     1  UNL1       -0.3121
     24 H          -0.6999    3.3313   -0.7712 H       1  UNL1        0.1518
     25 H          -1.2788    3.7484    0.8553 H       1  UNL1        0.1477
     26 H           0.4415    3.4059    0.5906 H       1  UNL1        0.1413
     27 H          -0.8304    0.2952    2.0870 H       1  UNL1        0.1681
     28 H           0.6182    1.3159    2.0513 H       1  UNL1        0.1568
     29 H          -0.9286    1.9798    2.6133 H       1  UNL1        0.1543
@<TRIPOS>BOND
     1    18    13    1
     2    19    14    1
     3     3     2    2
     4    13    14   ar
     5    13    12   ar
     6    14     9   ar
     7    24    22    1
     8     8     5    1
     9     2     1    1
    10     2    21   am
    11    17    12    1
    12    12    11   ar
    13     1    20    1
    14     1     4    2
    15     9     4    1
    16     9    10   ar
    17     4     5    1
    18     5     7    1
    19     5     6    1
    20    22    21    1
    21    22    26    1
    22    22    25    1
    23    21    23    1
    24    11    10   ar
    25    11    16    1
    26    10    15    1
    27    23    28    1
    28    23    27    1
    29    23    29    1
