@<TRIPOS>MOLECULE
GS-48-1.out
 38 40 0 0 0
SMALL
MULLIKEN_CHARGES
****
Gaussian 16 # wB97XD def2tzvp, opt=(maxcycles=70, maxstep=1), freq=noraman, scrf=(
@<TRIPOS>ATOM
      1 C          -0.0947   -0.7231   -0.3549 C.2     1  UNL1        0.1025
      2 C           1.1687   -1.4950   -0.6045 C.2     1  UNL1        0.2407
      3 O           1.1534   -2.5259   -1.2486 O.2     1  UNL1       -0.3914
      4 C          -1.2152   -1.4451   -0.2159 C.2     1  UNL1       -0.1642
      5 C          -2.5970   -0.9801   -0.0393 C.ar    1  UNL1        0.1923
      6 C          -3.0980    0.1610   -0.6694 C.ar    1  UNL1       -0.2247
      7 C          -4.4171    0.5415   -0.4901 C.ar    1  UNL1       -0.1460
      8 C          -5.2574   -0.2056    0.3250 C.ar    1  UNL1       -0.1359
      9 C          -4.7757   -1.3496    0.9447 C.ar    1  UNL1       -0.1435
     10 C          -3.4601   -1.7396    0.7522 C.ar    1  UNL1       -0.2398
     11 H          -2.4548    0.7470   -1.3120 H       1  UNL1        0.1713
     12 H          -4.7925    1.4246   -0.9914 H       1  UNL1        0.1442
     13 H          -6.2870    0.0974    0.4670 H       1  UNL1        0.1473
     14 H          -5.4272   -1.9441    1.5722 H       1  UNL1        0.1450
     15 H          -3.0903   -2.6409    1.2266 H       1  UNL1        0.1433
     16 H          -1.0941   -2.5241   -0.2249 H       1  UNL1        0.1597
     17 C          -0.0146    0.7570   -0.2793 C.ar    1  UNL1        0.0806
     18 C          -0.5170    1.4508    0.8196 C.ar    1  UNL1       -0.2502
     19 C          -0.4289    2.8311    0.8822 C.ar    1  UNL1       -0.1330
     20 C           0.1643    3.5400   -0.1543 C.ar    1  UNL1       -0.1289
     21 C           0.6728    2.8582   -1.2499 C.ar    1  UNL1       -0.1565
     22 C           0.5874    1.4752   -1.3089 C.ar    1  UNL1       -0.2045
     23 H          -0.9765    0.9003    1.6311 H       1  UNL1        0.1576
     24 H          -0.8212    3.3559    1.7441 H       1  UNL1        0.1433
     25 H           0.2333    4.6192   -0.1052 H       1  UNL1        0.1457
     26 H           1.1388    3.4029   -2.0611 H       1  UNL1        0.1434
     27 H           0.9878    0.9491   -2.1676 H       1  UNL1        0.1479
     28 C           2.4569   -0.9823   -0.0474 C.ar    1  UNL1        0.1144
     29 C           3.6319   -1.2037   -0.7608 C.ar    1  UNL1       -0.2000
     30 C           4.8467   -0.7707   -0.2566 C.ar    1  UNL1       -0.1439
     31 C           4.8983   -0.1357    0.9772 C.ar    1  UNL1       -0.1205
     32 C           3.7328    0.0699    1.7023 C.ar    1  UNL1       -0.1574
     33 C           2.5141   -0.3407    1.1869 C.ar    1  UNL1       -0.2005
     34 H           3.5824   -1.7088   -1.7168 H       1  UNL1        0.1468
     35 H           5.7548   -0.9306   -0.8235 H       1  UNL1        0.1476
     36 H           5.8484    0.1983    1.3746 H       1  UNL1        0.1500
     37 H           3.7726    0.5548    2.6691 H       1  UNL1        0.1470
     38 H           1.6088   -0.1744    1.7555 H       1  UNL1        0.1701
@<TRIPOS>BOND
     1    27    22    1
     2    26    21    1
     3    34    29    1
     4    11     6    1
     5    22    21   ar
     6    22    17   ar
     7    21    20   ar
     8     3     2    2
     9    12     7    1
    10    35    30    1
    11    29    30   ar
    12    29    28   ar
    13     6     7   ar
    14     6     5   ar
    15     2     1    1
    16     2    28    1
    17     7     8   ar
    18     1    17    1
    19     1     4    2
    20    17    18   ar
    21    30    31   ar
    22    16     4    1
    23     4     5    1
    24    20    25    1
    25    20    19   ar
    26    28    33   ar
    27     5    10   ar
    28     8    13    1
    29     8     9   ar
    30    10     9   ar
    31    10    15    1
    32    18    19   ar
    33    18    23    1
    34    19    24    1
    35     9    14    1
    36    31    36    1
    37    31    32   ar
    38    33    32   ar
    39    33    38    1
    40    32    37    1
