@<TRIPOS>MOLECULE
GS-441-0.out
 21 21 0 0 0
SMALL
MULLIKEN_CHARGES
****
Gaussian 16 # wB97XD def2tzvp, opt=(calcfc, maxcycles=70, maxstep=10), freq=norama
@<TRIPOS>ATOM
      1 C          -1.1897   -0.0945    0.0314 C.2     1  UNL1       -0.0415
      2 C          -1.8621   -1.3739    0.3682 C.2     1  UNL1        0.1496
      3 O          -3.0583   -1.5438    0.4240 O.2     1  UNL1       -0.3863
      4 C          -1.9536    0.9697   -0.2448 C.2     1  UNL1       -0.0732
      5 C          -1.5083    2.3297   -0.6449 C.3     1  UNL1       -0.3586
      6 H          -2.0705    2.6584   -1.5215 H       1  UNL1        0.1466
      7 H          -1.7318    3.0442    0.1525 H       1  UNL1        0.1523
      8 H          -0.4430    2.3791   -0.8620 H       1  UNL1        0.1454
      9 H          -3.0272    0.8157   -0.1835 H       1  UNL1        0.1510
     10 C           0.2932   -0.1022    0.0282 C.ar    1  UNL1        0.1924
     11 C           1.0187    0.8029    0.8011 C.ar    1  UNL1       -0.2718
     12 C           2.4049    0.7821    0.8014 C.ar    1  UNL1       -0.1247
     13 C           3.0882   -0.1507    0.0342 C.ar    1  UNL1       -0.1467
     14 C           2.3770   -1.0629   -0.7321 C.ar    1  UNL1       -0.1392
     15 C           0.9906   -1.0399   -0.7328 C.ar    1  UNL1       -0.2634
     16 H           0.4900    1.5237    1.4127 H       1  UNL1        0.1625
     17 H           2.9524    1.4930    1.4072 H       1  UNL1        0.1448
     18 H           4.1707   -0.1683    0.0355 H       1  UNL1        0.1463
     19 H           2.9024   -1.7933   -1.3342 H       1  UNL1        0.1451
     20 H           0.4448   -1.7497   -1.3435 H       1  UNL1        0.1603
     21 H          -1.1755   -2.2135    0.5850 H       1  UNL1        0.1091
@<TRIPOS>BOND
     1     6     5    1
     2    20    15    1
     3    19    14    1
     4     8     5    1
     5    15    14   ar
     6    15    10   ar
     7    14    13   ar
     8     5     4    1
     9     5     7    1
    10     4     9    1
    11     4     1    2
    12    10     1    1
    13    10    11   ar
    14     1     2    1
    15    13    18    1
    16    13    12   ar
    17     2     3    2
    18     2    21    1
    19    11    12   ar
    20    11    16    1
    21    12    17    1
