@<TRIPOS>MOLECULE
GS-407-0.out
 43 45 0 0 0
SMALL
MULLIKEN_CHARGES
****
Gaussian 16 # wb97xd def2tzvp opt=(calcfc, maxcycles=100, maxstep=10) freq=noraman
@<TRIPOS>ATOM
      1 C          -1.3782    0.2861    0.0125 C.2     1  UNL1        0.1470
      2 C          -0.3296   -0.7450    0.3399 C.2     1  UNL1        0.2076
      3 O          -0.4433   -1.4779    1.3076 O.2     1  UNL1       -0.4512
      4 C          -1.0724    1.5824   -0.1507 C.2     1  UNL1        0.0205
      5 C          -2.0844    2.6340   -0.5042 C.3     1  UNL1       -0.3690
      6 H          -2.2593    3.2905    0.3520 H       1  UNL1        0.1501
      7 H          -1.7009    3.2635   -1.3091 H       1  UNL1        0.1435
      8 H          -3.0356    2.2102   -0.8163 H       1  UNL1        0.1480
      9 C           0.3179    2.0857    0.0366 C.ar    1  UNL1        0.0441
     10 C           0.9800    2.7466   -0.9972 C.ar    1  UNL1       -0.2160
     11 C           2.2858    3.1830   -0.8339 C.ar    1  UNL1       -0.1542
     12 C           2.9432    2.9822    0.3713 C.ar    1  UNL1       -0.1343
     13 C           2.2866    2.3424    1.4123 C.ar    1  UNL1       -0.1400
     14 C           0.9840    1.8982    1.2459 C.ar    1  UNL1       -0.2000
     15 H           0.4808    2.8996   -1.9464 H       1  UNL1        0.1533
     16 H           2.7915    3.6789   -1.6527 H       1  UNL1        0.1433
     17 H           3.9624    3.3240    0.4986 H       1  UNL1        0.1455
     18 H           2.7894    2.1868    2.3583 H       1  UNL1        0.1438
     19 H           0.4761    1.3966    2.0606 H       1  UNL1        0.1536
     20 C          -2.7583   -0.2616   -0.0404 C.ar    1  UNL1        0.1389
     21 C          -3.0619   -1.2990   -0.9205 C.ar    1  UNL1       -0.2075
     22 C          -4.3412   -1.8289   -0.9744 C.ar    1  UNL1       -0.1677
     23 C          -5.3347   -1.3362   -0.1393 C.ar    1  UNL1       -0.1289
     24 C          -5.0394   -0.3135    0.7502 C.ar    1  UNL1       -0.1339
     25 C          -3.7594    0.2182    0.8001 C.ar    1  UNL1       -0.2706
     26 H          -2.2900   -1.6900   -1.5735 H       1  UNL1        0.1458
     27 H          -4.5631   -2.6289   -1.6695 H       1  UNL1        0.1433
     28 H          -6.3338   -1.7513   -0.1789 H       1  UNL1        0.1459
     29 H          -5.8063    0.0704    1.4111 H       1  UNL1        0.1434
     30 H          -3.5302    1.0112    1.5011 H       1  UNL1        0.1553
     31 N           0.7089   -0.8026   -0.5373 N.am    1  UNL1       -0.2392
     32 C           1.9449   -1.4476   -0.3350 C.ar    1  UNL1        0.3082
     33 C           3.0935   -0.8008   -0.7850 C.ar    1  UNL1       -0.2844
     34 C           4.3331   -1.3968   -0.6291 C.ar    1  UNL1       -0.1191
     35 C           4.4400   -2.6372   -0.0148 C.ar    1  UNL1       -0.1724
     36 C           3.2940   -3.2773    0.4332 C.ar    1  UNL1       -0.0952
     37 C           2.0451   -2.6946    0.2726 C.ar    1  UNL1       -0.3127
     38 H           0.7104   -0.0869   -1.2456 H       1  UNL1        0.2683
     39 H           3.0103    0.1781   -1.2438 H       1  UNL1        0.1653
     40 H           5.2193   -0.8845   -0.9815 H       1  UNL1        0.1440
     41 H           5.4094   -3.1013    0.1122 H       1  UNL1        0.1437
     42 H           3.3667   -4.2474    0.9085 H       1  UNL1        0.1452
     43 H           1.1551   -3.1998    0.6146 H       1  UNL1        0.1491
@<TRIPOS>BOND
     1    15    10    1
     2    27    22    1
     3    16    11    1
     4    26    21    1
     5     7     5    1
     6    38    31    1
     7    39    33    1
     8    10    11   ar
     9    10     9   ar
    10    40    34    1
    11    22    21   ar
    12    22    23   ar
    13    21    20   ar
    14    11    12   ar
    15     8     5    1
    16    33    34   ar
    17    33    32   ar
    18    34    35   ar
    19    31    32    1
    20    31     2   am
    21     5     4    1
    22     5     6    1
    23    32    37   ar
    24    28    23    1
    25     4     1    2
    26     4     9    1
    27    23    24   ar
    28    20     1    1
    29    20    25   ar
    30    35    41    1
    31    35    36   ar
    32     1     2    1
    33     9    14   ar
    34    37    36   ar
    35    37    43    1
    36     2     3    2
    37    12    17    1
    38    12    13   ar
    39    36    42    1
    40    24    25   ar
    41    24    29    1
    42    25    30    1
    43    14    13   ar
    44    14    19    1
    45    13    18    1
