@<TRIPOS>MOLECULE
GS-449-0.out
 11 10 0 0 0
SMALL
MULLIKEN_CHARGES
****
Gaussian 16 # wB97XD def2tzvp, opt=(calcfc, maxcycles=70, maxstep=10), freq=norama
@<TRIPOS>ATOM
      1 C          -0.0902   -0.3329    0.0000 C.2     1  UNL1       -0.1757
      2 C          -1.3889    0.3296    0.0000 C.2     1  UNL1        0.1725
      3 O          -2.4565   -0.2451   -0.0000 O.2     1  UNL1       -0.3990
      4 C           1.0327    0.3873   -0.0000 C.2     1  UNL1       -0.0884
      5 C           2.4128   -0.1624   -0.0000 C.3     1  UNL1       -0.3323
      6 H           2.9590    0.1966    0.8757 H       1  UNL1        0.1450
      7 H           2.4180   -1.2515    0.0000 H       1  UNL1        0.1344
      8 H           2.9590    0.1966   -0.8758 H       1  UNL1        0.1450
      9 H           0.9455    1.4718   -0.0000 H       1  UNL1        0.1566
     10 H          -0.0779   -1.4179    0.0000 H       1  UNL1        0.1491
     11 H          -1.3500    1.4363    0.0000 H       1  UNL1        0.0929
@<TRIPOS>BOND
     1     8     5    1
     2     3     2    2
     3     5     4    1
     4     5     7    1
     5     5     6    1
     6     4     9    1
     7     4     1    2
     8     2     1    1
     9     2    11    1
    10    10     1    1
