@<TRIPOS>MOLECULE
GS-436-0.out
 25 25 0 0 0
SMALL
MULLIKEN_CHARGES
****
Gaussian 16 # wB97XD def2tzvp, opt=(calcfc, maxcycles=70, maxstep=10), freq=norama
@<TRIPOS>ATOM
      1 C           1.4344   -0.3531   -0.0012 C.2     1  UNL1        0.0148
      2 C           1.2797    1.1353    0.0628 C.2     1  UNL1        0.3216
      3 O           1.8594    1.8344    0.8544 O.2     1  UNL1       -0.3969
      4 C           0.4303   -1.2314   -0.0235 C.2     1  UNL1       -0.0079
      5 C           0.6156   -2.7157   -0.0774 C.3     1  UNL1       -0.3389
      6 H           0.0080   -3.1335   -0.8822 H       1  UNL1        0.1474
      7 H           1.6512   -3.0046   -0.2327 H       1  UNL1        0.1335
      8 H           0.2577   -3.1615    0.8536 H       1  UNL1        0.1518
      9 C          -0.9776   -0.7599    0.0744 C.ar    1  UNL1        0.2246
     10 C          -1.9011   -1.0827   -0.9170 C.ar    1  UNL1       -0.2391
     11 C          -3.2117   -0.6433   -0.8240 C.ar    1  UNL1       -0.1464
     12 C          -3.6208    0.1089    0.2689 C.ar    1  UNL1       -0.1405
     13 C          -2.7117    0.4182    1.2692 C.ar    1  UNL1       -0.1392
     14 C          -1.3979   -0.0154    1.1733 C.ar    1  UNL1       -0.2343
     15 H          -1.5898   -1.6613   -1.7779 H       1  UNL1        0.1548
     16 H          -3.9161   -0.8880   -1.6088 H       1  UNL1        0.1459
     17 H          -4.6460    0.4486    0.3415 H       1  UNL1        0.1473
     18 H          -3.0242    0.9961    2.1295 H       1  UNL1        0.1466
     19 H          -0.6926    0.2209    1.9609 H       1  UNL1        0.1610
     20 CL          3.1064   -0.8371    0.0376 Cl      1  UNL1       -0.0941
     21 O           0.4515    1.5879   -0.8669 O.3     1  UNL1       -0.2575
     22 C           0.1419    2.9839   -0.8177 C.3     1  UNL1       -0.1973
     23 H          -0.5451    3.1596   -1.6395 H       1  UNL1        0.1518
     24 H          -0.3321    3.2282    0.1325 H       1  UNL1        0.1448
     25 H           1.0454    3.5791   -0.9415 H       1  UNL1        0.1462
@<TRIPOS>BOND
     1    15    10    1
     2    23    22    1
     3    16    11    1
     4    25    22    1
     5    10    11   ar
     6    10     9   ar
     7     6     5    1
     8    21    22    1
     9    21     2    1
    10    11    12   ar
    11    22    24    1
    12     7     5    1
    13     5     4    1
    14     5     8    1
    15     4     1    2
    16     4     9    1
    17     1    20    1
    18     1     2    1
    19     2     3    2
    20     9    14   ar
    21    12    17    1
    22    12    13   ar
    23    14    13   ar
    24    14    19    1
    25    13    18    1
