@<TRIPOS>MOLECULE
GS-433-0.out
 21 21 0 0 0
SMALL
MULLIKEN_CHARGES
****
Gaussian 16 # wB97XD def2tzvp, opt=(calcfc, maxcycles=70, maxstep=10), freq=norama
@<TRIPOS>ATOM
      1 C          -1.4759    0.0838   -0.0507 C.2     1  UNL1        0.0047
      2 C          -1.2811    1.4940   -0.4242 C.2     1  UNL1        0.0997
      3 O          -2.1691    2.3057   -0.5265 O.2     1  UNL1       -0.3655
      4 C          -0.4660   -0.7896    0.1026 C.2     1  UNL1        0.0402
      5 C          -0.6537   -2.2468    0.3717 C.3     1  UNL1       -0.3418
      6 H          -0.3461   -2.4613    1.3988 H       1  UNL1        0.1597
      7 H          -1.6805   -2.5731    0.2353 H       1  UNL1        0.1372
      8 H           0.0019   -2.8281   -0.2787 H       1  UNL1        0.1532
      9 C           0.9496   -0.3332    0.0581 C.ar    1  UNL1        0.1822
     10 C           1.4419    0.5478    1.0176 C.ar    1  UNL1       -0.2720
     11 C           2.7724    0.9387    0.9941 C.ar    1  UNL1       -0.1068
     12 C           3.6220    0.4557    0.0108 C.ar    1  UNL1       -0.1448
     13 C           3.1388   -0.4272   -0.9456 C.ar    1  UNL1       -0.1412
     14 C           1.8136   -0.8288   -0.9166 C.ar    1  UNL1       -0.2119
     15 H           0.7807    0.9209    1.7899 H       1  UNL1        0.1631
     16 H           3.1434    1.6221    1.7470 H       1  UNL1        0.1496
     17 H           4.6595    0.7636   -0.0099 H       1  UNL1        0.1499
     18 H           3.7968   -0.8058   -1.7172 H       1  UNL1        0.1487
     19 H           1.4435   -1.5164   -1.6670 H       1  UNL1        0.1596
     20 CL         -3.1400   -0.3941    0.1201 Cl      1  UNL1       -0.1019
     21 H          -0.2366    1.7665   -0.6355 H       1  UNL1        0.1381
@<TRIPOS>BOND
     1    18    13    1
     2    19    14    1
     3    13    14   ar
     4    13    12   ar
     5    14     9   ar
     6    21     2    1
     7     3     2    2
     8     2     1    1
     9     8     5    1
    10     1     4    2
    11     1    20    1
    12    17    12    1
    13    12    11   ar
    14     9     4    1
    15     9    10   ar
    16     4     5    1
    17     7     5    1
    18     5     6    1
    19    11    10   ar
    20    11    16    1
    21    10    15    1
