@<TRIPOS>MOLECULE
GS-402-1.out
 34 35 0 0 0
SMALL
MULLIKEN_CHARGES
****
Gaussian 16 # wB97XD def2tzvp, opt=(calcfc, maxcycles=70, maxstep=1), freq=noraman
@<TRIPOS>ATOM
      1 C           0.4682    0.1681   -0.0617 C.2     1  UNL1        0.0378
      2 C           0.0618    1.6133    0.0614 C.2     1  UNL1        0.1815
      3 O           0.5365    2.2996    0.9426 O.2     1  UNL1       -0.3875
      4 C          -0.4217   -0.8328   -0.1402 C.2     1  UNL1        0.0467
      5 C          -0.0282   -2.2734   -0.3008 C.3     1  UNL1       -0.3597
      6 H          -0.2283   -2.8245    0.6216 H       1  UNL1        0.1476
      7 H          -0.6306   -2.7405   -1.0821 H       1  UNL1        0.1419
      8 H           1.0224   -2.3913   -0.5542 H       1  UNL1        0.1458
      9 C          -1.8813   -0.5853   -0.0088 C.ar    1  UNL1        0.0535
     10 C          -2.7747   -1.0280   -0.9847 C.ar    1  UNL1       -0.2147
     11 C          -4.1302   -0.7690   -0.8695 C.ar    1  UNL1       -0.1525
     12 C          -4.6195   -0.0816    0.2339 C.ar    1  UNL1       -0.1278
     13 C          -3.7438    0.3425    1.2211 C.ar    1  UNL1       -0.1511
     14 C          -2.3847    0.0914    1.1003 C.ar    1  UNL1       -0.2019
     15 H          -2.4047   -1.5540   -1.8562 H       1  UNL1        0.1519
     16 H          -4.8080   -1.1028   -1.6449 H       1  UNL1        0.1452
     17 H          -5.6798    0.1169    0.3242 H       1  UNL1        0.1471
     18 H          -4.1171    0.8689    2.0903 H       1  UNL1        0.1452
     19 H          -1.7058    0.4159    1.8791 H       1  UNL1        0.1619
     20 C           1.9404   -0.0463   -0.0214 C.ar    1  UNL1        0.1536
     21 C           2.7571    0.4968   -1.0112 C.ar    1  UNL1       -0.1970
     22 C           4.1309    0.3145   -0.9734 C.ar    1  UNL1       -0.1650
     23 C           4.7095   -0.4065    0.0620 C.ar    1  UNL1       -0.1301
     24 C           3.9061   -0.9426    1.0580 C.ar    1  UNL1       -0.1359
     25 C           2.5316   -0.7619    1.0166 C.ar    1  UNL1       -0.2597
     26 H           2.3131    1.0598   -1.8240 H       1  UNL1        0.1475
     27 H           4.7508    0.7360   -1.7545 H       1  UNL1        0.1428
     28 H           5.7823   -0.5478    0.0932 H       1  UNL1        0.1456
     29 H           4.3501   -1.5018    1.8720 H       1  UNL1        0.1433
     30 H           1.9066   -1.1787    1.7968 H       1  UNL1        0.1509
     31 C          -0.8230    2.2181   -0.9953 C.3     1  UNL1       -0.3558
     32 H          -1.5364    1.5105   -1.4092 H       1  UNL1        0.1524
     33 H          -1.3337    3.0951   -0.6019 H       1  UNL1        0.1394
     34 H          -0.1639    2.5381   -1.8087 H       1  UNL1        0.1573
@<TRIPOS>BOND
     1    15    10    1
     2    26    21    1
     3    34    31    1
     4    27    22    1
     5    16    11    1
     6    32    31    1
     7     7     5    1
     8    21    22   ar
     9    21    20   ar
    10    31    33    1
    11    31     2    1
    12    10    11   ar
    13    10     9   ar
    14    22    23   ar
    15    11    12   ar
    16     8     5    1
    17     5     4    1
    18     5     6    1
    19     4     1    2
    20     4     9    1
    21     1    20    1
    22     1     2    1
    23    20    25   ar
    24     9    14   ar
    25     2     3    2
    26    23    28    1
    27    23    24   ar
    28    12    17    1
    29    12    13   ar
    30    25    24   ar
    31    25    30    1
    32    24    29    1
    33    14    13   ar
    34    14    19    1
    35    13    18    1
