@<TRIPOS>MOLECULE
GS-406-2.out
 39 40 0 0 0
SMALL
MULLIKEN_CHARGES
****
Gaussian 16 # wB97XD def2tzvp, opt=(calcfc, maxcycles=70, maxstep=10), freq=norama
@<TRIPOS>ATOM
      1 C          -0.5718   -0.1132   -0.2459 C.2     1  UNL1        0.0073
      2 C          -0.0733    1.3072   -0.3481 C.2     1  UNL1        0.1933
      3 O          -0.1899    1.9098   -1.4135 O.2     1  UNL1       -0.4919
      4 C           0.2747   -1.1481   -0.2642 C.2     1  UNL1        0.0493
      5 C          -0.1624   -2.5865   -0.2779 C.3     1  UNL1       -0.3627
      6 H           0.3701   -3.1250   -1.0645 H       1  UNL1        0.1443
      7 H           0.0859   -3.0764    0.6670 H       1  UNL1        0.1439
      8 H          -1.2323   -2.6920   -0.4418 H       1  UNL1        0.1471
      9 C           1.7496   -0.9386   -0.2694 C.ar    1  UNL1        0.1803
     10 C           2.5271   -1.4700    0.7593 C.ar    1  UNL1       -0.2760
     11 C           3.8992   -1.2776    0.7820 C.ar    1  UNL1       -0.1441
     12 C           4.5198   -0.5624   -0.2330 C.ar    1  UNL1       -0.1352
     13 C           3.7581   -0.0433   -1.2691 C.ar    1  UNL1       -0.1616
     14 C           2.3836   -0.2311   -1.2880 C.ar    1  UNL1       -0.2055
     15 H           2.0518   -2.0233    1.5603 H       1  UNL1        0.1523
     16 H           4.4853   -1.6858    1.5958 H       1  UNL1        0.1427
     17 H           5.5920   -0.4137   -0.2172 H       1  UNL1        0.1442
     18 H           4.2343    0.5095   -2.0693 H       1  UNL1        0.1418
     19 H           1.7937    0.1768   -2.0986 H       1  UNL1        0.1456
     20 C          -2.0515   -0.2378   -0.1571 C.ar    1  UNL1        0.1447
     21 C          -2.6324   -0.8892    0.9302 C.ar    1  UNL1       -0.2777
     22 C          -4.0105   -0.9943    1.0415 C.ar    1  UNL1       -0.1355
     23 C          -4.8309   -0.4441    0.0677 C.ar    1  UNL1       -0.1349
     24 C          -4.2634    0.2136   -1.0147 C.ar    1  UNL1       -0.1539
     25 C          -2.8855    0.3207   -1.1251 C.ar    1  UNL1       -0.2363
     26 H          -1.9966   -1.3166    1.6960 H       1  UNL1        0.1641
     27 H          -4.4430   -1.5045    1.8930 H       1  UNL1        0.1426
     28 H          -5.9072   -0.5253    0.1527 H       1  UNL1        0.1446
     29 H          -4.8970    0.6452   -1.7796 H       1  UNL1        0.1416
     30 H          -2.4454    0.8379   -1.9671 H       1  UNL1        0.1453
     31 N           0.4596    1.8704    0.7536 N.am    1  UNL1       -0.0704
     32 C           1.0270    3.2016    0.6860 C.3     1  UNL1       -0.2841
     33 C           0.5623    1.2267    2.0469 C.3     1  UNL1       -0.2980
     34 H           0.9793    3.5644   -0.3354 H       1  UNL1        0.1512
     35 H           0.4760    3.8829    1.3384 H       1  UNL1        0.1429
     36 H           2.0686    3.1733    1.0143 H       1  UNL1        0.1376
     37 H          -0.0066    0.3031    2.0660 H       1  UNL1        0.1591
     38 H           1.6059    1.0012    2.2806 H       1  UNL1        0.1525
     39 H           0.1697    1.8959    2.8149 H       1  UNL1        0.1495
@<TRIPOS>BOND
     1    19    14    1
     2    18    13    1
     3    30    25    1
     4    29    24    1
     5     3     2    2
     6    14    13   ar
     7    14     9   ar
     8    13    12   ar
     9    25    24   ar
    10    25    20   ar
    11     6     5    1
    12    24    23   ar
    13     8     5    1
    14     2     1    1
    15     2    31   am
    16    34    32    1
    17     5     4    1
    18     5     7    1
    19     9     4    1
    20     9    10   ar
    21     4     1    2
    22     1    20    1
    23    12    17    1
    24    12    11   ar
    25    20    21   ar
    26    23    28    1
    27    23    22   ar
    28    32    31    1
    29    32    36    1
    30    32    35    1
    31    31    33    1
    32    10    11   ar
    33    10    15    1
    34    11    16    1
    35    21    22   ar
    36    21    26    1
    37    22    27    1
    38    33    37    1
    39    33    38    1
    40    33    39    1
