@<TRIPOS>MOLECULE
GS-418-1.out
 27 27 0 0 0
SMALL
MULLIKEN_CHARGES
****
Gaussian 16 # wB97XD def2tzvp, opt=(calcfc, maxcycles=70, maxstep=1), freq=noraman
@<TRIPOS>ATOM
      1 C           1.7433    0.2908    0.0151 C.2     1  UNL1       -0.0172
      2 C           1.6181   -1.1939    0.2028 C.2     1  UNL1        0.2324
      3 O           2.3247   -1.9455   -0.4404 O.2     1  UNL1       -0.4069
      4 C           0.6691    1.0892   -0.0731 C.2     1  UNL1       -0.0248
      5 C           0.7326    2.5824   -0.2344 C.3     1  UNL1       -0.3508
      6 H           0.0231    3.0599    0.4440 H       1  UNL1        0.1391
      7 H           1.7168    2.9980   -0.0381 H       1  UNL1        0.1224
      8 H           0.4325    2.8628   -1.2477 H       1  UNL1        0.1461
      9 C          -0.7117    0.5343   -0.1093 C.ar    1  UNL1        0.1771
     10 C          -1.6688    0.9320    0.8245 C.ar    1  UNL1       -0.2113
     11 C          -2.9467    0.3993    0.7970 C.ar    1  UNL1       -0.1493
     12 C          -3.2979   -0.5240   -0.1798 C.ar    1  UNL1       -0.1371
     13 C          -2.3629   -0.9074   -1.1285 C.ar    1  UNL1       -0.1442
     14 C          -1.0798   -0.3806   -1.0927 C.ar    1  UNL1       -0.2432
     15 H          -1.4032    1.6434    1.5972 H       1  UNL1        0.1527
     16 H          -3.6716    0.7036    1.5413 H       1  UNL1        0.1443
     17 H          -4.2983   -0.9370   -0.2027 H       1  UNL1        0.1461
     18 H          -2.6304   -1.6182   -1.9002 H       1  UNL1        0.1444
     19 H          -0.3530   -0.6797   -1.8383 H       1  UNL1        0.1588
     20 C           3.1729    0.7405   -0.1147 C.3     1  UNL1       -0.3447
     21 H           3.7357    0.5116    0.7937 H       1  UNL1        0.1362
     22 H           3.6514    0.1971   -0.9307 H       1  UNL1        0.1378
     23 H           3.2648    1.8038   -0.3147 H       1  UNL1        0.1174
     24 C           0.7069   -1.7613    1.2669 C.3     1  UNL1       -0.3773
     25 H           0.2071   -0.9991    1.8575 H       1  UNL1        0.1434
     26 H          -0.0420   -2.4029    0.8013 H       1  UNL1        0.1527
     27 H           1.3197   -2.3864    1.9185 H       1  UNL1        0.1559
@<TRIPOS>BOND
     1    18    13    1
     2    19    14    1
     3     8     5    1
     4    13    14   ar
     5    13    12   ar
     6    14     9   ar
     7    22    20    1
     8     3     2    2
     9    23    20    1
    10     5     4    1
    11     5     7    1
    12     5     6    1
    13    17    12    1
    14    12    11   ar
    15    20     1    1
    16    20    21    1
    17     9     4    1
    18     9    10   ar
    19     4     1    2
    20     1     2    1
    21     2    24    1
    22    11    10   ar
    23    11    16    1
    24    26    24    1
    25    10    15    1
    26    24    25    1
    27    24    27    1
