@<TRIPOS>MOLECULE
GS-491-0.out
 16 15 0 0 0
SMALL
MULLIKEN_CHARGES
****
Gaussian 16 # wB97XD def2tzvp, opt=(calcfc, maxcycles=70, maxstep=10), freq=norama
@<TRIPOS>ATOM
      1 C           0.0044   -0.7285   -0.2085 C.2     1  UNL1       -0.2704
      2 C          -1.3878   -0.2409   -0.0222 C.2     1  UNL1        0.3463
      3 O          -2.2270   -0.9463    0.5290 O.2     1  UNL1       -0.4937
      4 C           1.1466   -0.0709    0.0030 C.2     1  UNL1        0.0531
      5 C           2.4629   -0.7636   -0.1959 C.3     1  UNL1       -0.3451
      6 H           3.0123   -0.8117    0.7479 H       1  UNL1        0.1395
      7 H           2.3412   -1.7746   -0.5820 H       1  UNL1        0.1290
      8 H           3.0840   -0.1941   -0.8925 H       1  UNL1        0.1345
      9 C           1.2606    1.3521    0.4669 C.3     1  UNL1       -0.3849
     10 H           2.0113    1.4197    1.2570 H       1  UNL1        0.1379
     11 H           1.6108    1.9864   -0.3525 H       1  UNL1        0.1542
     12 H           0.3251    1.7597    0.8426 H       1  UNL1        0.1423
     13 H           0.0450   -1.7791   -0.4754 H       1  UNL1        0.1474
     14 N          -1.6930    0.9798   -0.5064 N.am    1  UNL1       -0.4634
     15 H          -2.6374    1.3152   -0.4251 H       1  UNL1        0.2761
     16 H          -1.0453    1.5013   -1.0676 H       1  UNL1        0.2971
@<TRIPOS>BOND
     1    16    14    1
     2     8     5    1
     3     7     5    1
     4    14    15    1
     5    14     2   am
     6    13     1    1
     7    11     9    1
     8     1     2    1
     9     1     4    2
    10     5     4    1
    11     5     6    1
    12     2     3    2
    13     4     9    1
    14     9    12    1
    15     9    10    1
