@<TRIPOS>MOLECULE
GS-401-0.out
 31 32 0 0 0
SMALL
MULLIKEN_CHARGES
****
Gaussian 16 # wB97XD def2tzvp, opt=(calcfc, maxcycles=70, maxstep=10), freq=norama
@<TRIPOS>ATOM
      1 C          -0.4220    0.3480    0.0943 C.2     1  UNL1       -0.0273
      2 C          -0.0147    1.7569    0.2201 C.2     1  UNL1        0.1451
      3 O          -0.7789    2.6965    0.1589 O.2     1  UNL1       -0.3886
      4 C           0.5055   -0.6320    0.0801 C.2     1  UNL1        0.1151
      5 C           0.1519   -2.0875    0.0845 C.3     1  UNL1       -0.3472
      6 H           0.7462   -2.6107    0.8362 H       1  UNL1        0.1501
      7 H          -0.9033   -2.2622    0.2779 H       1  UNL1        0.1485
      8 H           0.4113   -2.5305   -0.8808 H       1  UNL1        0.1534
      9 C           1.9653   -0.3531    0.0201 C.ar    1  UNL1        0.1266
     10 C           2.5181    0.2944   -1.0826 C.ar    1  UNL1       -0.2680
     11 C           3.8845    0.5209   -1.1557 C.ar    1  UNL1       -0.1225
     12 C           4.7143    0.1065   -0.1250 C.ar    1  UNL1       -0.1351
     13 C           4.1725   -0.5433    0.9759 C.ar    1  UNL1       -0.1525
     14 C           2.8096   -0.7822    1.0429 C.ar    1  UNL1       -0.2282
     15 H           1.8714    0.6157   -1.8899 H       1  UNL1        0.1591
     16 H           4.2994    1.0231   -2.0202 H       1  UNL1        0.1469
     17 H           5.7803    0.2865   -0.1791 H       1  UNL1        0.1482
     18 H           4.8141   -0.8668    1.7856 H       1  UNL1        0.1463
     19 H           2.3957   -1.2884    1.9065 H       1  UNL1        0.1566
     20 C          -1.8821    0.0757    0.0199 C.ar    1  UNL1        0.1200
     21 C          -2.4478   -0.4164   -1.1526 C.ar    1  UNL1       -0.2357
     22 C          -3.8099   -0.6687   -1.2288 C.ar    1  UNL1       -0.1373
     23 C          -4.6235   -0.4296   -0.1311 C.ar    1  UNL1       -0.1377
     24 C          -4.0686    0.0658    1.0411 C.ar    1  UNL1       -0.1437
     25 C          -2.7079    0.3205    1.1139 C.ar    1  UNL1       -0.2330
     26 H          -1.8131   -0.6056   -2.0101 H       1  UNL1        0.1472
     27 H          -4.2351   -1.0530   -2.1474 H       1  UNL1        0.1432
     28 H          -5.6863   -0.6274   -0.1882 H       1  UNL1        0.1453
     29 H          -4.6977    0.2543    1.9020 H       1  UNL1        0.1429
     30 H          -2.2794    0.7076    2.0304 H       1  UNL1        0.1424
     31 H           1.0572    1.9307    0.4039 H       1  UNL1        0.1200
@<TRIPOS>BOND
     1    27    22    1
     2    16    11    1
     3    26    21    1
     4    15    10    1
     5    22    21   ar
     6    22    23   ar
     7    11    10   ar
     8    11    12   ar
     9    21    20   ar
    10    10     9   ar
    11     8     5    1
    12    28    23    1
    13    17    12    1
    14    23    24   ar
    15    12    13   ar
    16    20     1    1
    17    20    25   ar
    18     9     4    1
    19     9    14   ar
    20     4     5    1
    21     4     1    2
    22     5     7    1
    23     5     6    1
    24     1     2    1
    25     3     2    2
    26     2    31    1
    27    13    14   ar
    28    13    18    1
    29    24    25   ar
    30    24    29    1
    31    14    19    1
    32    25    30    1
