@<TRIPOS>MOLECULE
GS-40-1.out
 38 40 0 0 0
SMALL
MULLIKEN_CHARGES
****
Gaussian 16 # wB97XD def2tzvp, opt=(maxcycles=70, maxstep=1), freq=noraman, scrf=(
@<TRIPOS>ATOM
      1 C           0.3008   -1.3215   -0.5466 C.2     1  UNL1        0.0242
      2 C          -1.1530   -1.5322   -0.8858 C.2     1  UNL1        0.1695
      3 O          -1.4565   -2.1425   -1.8868 O.2     1  UNL1       -0.3592
      4 C           0.8758   -0.1380   -0.3069 C.2     1  UNL1        0.0921
      5 C           2.3014    0.0226    0.0733 C.ar    1  UNL1        0.0885
      6 C           3.1270    0.8500   -0.6842 C.ar    1  UNL1       -0.2207
      7 C           4.4537    1.0328   -0.3287 C.ar    1  UNL1       -0.1505
      8 C           4.9627    0.4099    0.8023 C.ar    1  UNL1       -0.1263
      9 C           4.1403   -0.3990    1.5733 C.ar    1  UNL1       -0.1316
     10 C           2.8176   -0.5961    1.2087 C.ar    1  UNL1       -0.2400
     11 H           2.7269    1.3491   -1.5584 H       1  UNL1        0.1559
     12 H           5.0892    1.6680   -0.9323 H       1  UNL1        0.1453
     13 H           5.9968    0.5596    1.0855 H       1  UNL1        0.1478
     14 H           4.5284   -0.8778    2.4632 H       1  UNL1        0.1452
     15 H           2.1776   -1.2252    1.8141 H       1  UNL1        0.1650
     16 C           0.0907    1.1155   -0.4396 C.ar    1  UNL1        0.2046
     17 C           0.0913    2.0434    0.6015 C.ar    1  UNL1       -0.2398
     18 C          -0.6623    3.1996    0.5088 C.ar    1  UNL1       -0.1404
     19 C          -1.4078    3.4568   -0.6358 C.ar    1  UNL1       -0.1239
     20 C          -1.3891    2.5545   -1.6872 C.ar    1  UNL1       -0.1450
     21 C          -0.6423    1.3893   -1.5905 C.ar    1  UNL1       -0.2378
     22 H           0.6712    1.8446    1.4943 H       1  UNL1        0.1594
     23 H          -0.6693    3.9040    1.3306 H       1  UNL1        0.1454
     24 H          -1.9937    4.3641   -0.7086 H       1  UNL1        0.1480
     25 H          -1.9542    2.7562   -2.5881 H       1  UNL1        0.1460
     26 H          -0.6199    0.6934   -2.4197 H       1  UNL1        0.1620
     27 CL          1.2054   -2.8069   -0.5875 Cl      1  UNL1       -0.0798
     28 C          -2.1837   -1.0176    0.0572 C.ar    1  UNL1        0.1367
     29 C          -1.8958   -0.7787    1.3980 C.ar    1  UNL1       -0.1929
     30 C          -2.8929   -0.3423    2.2553 C.ar    1  UNL1       -0.1511
     31 C          -4.1758   -0.1267    1.7739 C.ar    1  UNL1       -0.1225
     32 C          -4.4675   -0.3605    0.4354 C.ar    1  UNL1       -0.1169
     33 C          -3.4778   -0.8134   -0.4177 C.ar    1  UNL1       -0.2321
     34 H          -0.8941   -0.9382    1.7748 H       1  UNL1        0.1774
     35 H          -2.6665   -0.1661    3.2987 H       1  UNL1        0.1475
     36 H          -4.9515    0.2250    2.4422 H       1  UNL1        0.1515
     37 H          -5.4676   -0.1881    0.0597 H       1  UNL1        0.1496
     38 H          -3.6926   -1.0014   -1.4614 H       1  UNL1        0.1487
@<TRIPOS>BOND
     1    25    20    1
     2    26    21    1
     3     3     2    2
     4    20    21   ar
     5    20    19   ar
     6    21    16   ar
     7    11     6    1
     8    38    33    1
     9    12     7    1
    10     2     1    1
    11     2    28    1
    12    24    19    1
    13     6     7   ar
    14     6     5   ar
    15    19    18   ar
    16    27     1    1
    17     1     4    2
    18    16     4    1
    19    16    17   ar
    20    33    28   ar
    21    33    32   ar
    22     7     8   ar
    23     4     5    1
    24    28    29   ar
    25    37    32    1
    26     5    10   ar
    27    32    31   ar
    28    18    17   ar
    29    18    23    1
    30    17    22    1
    31     8    13    1
    32     8     9   ar
    33    10     9   ar
    34    10    15    1
    35    29    34    1
    36    29    30   ar
    37     9    14    1
    38    31    30   ar
    39    31    36    1
    40    30    35    1
