@<TRIPOS>MOLECULE
GS-452-0.out
 15 14 0 0 0
SMALL
MULLIKEN_CHARGES
****
Gaussian 16 # wB97XD def2tzvp, opt=(calcfc, maxcycles=70, maxstep=10), freq=norama
@<TRIPOS>ATOM
      1 C           0.7677   -0.4507    0.0000 C.2     1  UNL1       -0.3016
      2 C          -0.5668    0.1773    0.0000 C.2     1  UNL1        0.4595
      3 O          -0.7938    1.3653    0.0000 O.2     1  UNL1       -0.4431
      4 C           1.8760    0.2826   -0.0000 C.2     1  UNL1       -0.0457
      5 C           3.2601   -0.2617   -0.0000 C.3     1  UNL1       -0.3301
      6 H           3.8056    0.0970    0.8762 H       1  UNL1        0.1413
      7 H           3.2703   -1.3512    0.0000 H       1  UNL1        0.1322
      8 H           3.8056    0.0970   -0.8763 H       1  UNL1        0.1413
      9 H           1.7724    1.3641   -0.0000 H       1  UNL1        0.1514
     10 H           0.8008   -1.5334    0.0000 H       1  UNL1        0.1526
     11 O          -1.5304   -0.7485   -0.0000 O.3     1  UNL1       -0.2842
     12 C          -2.8742   -0.2675   -0.0000 C.3     1  UNL1       -0.1949
     13 H          -3.5052   -1.1514   -0.0000 H       1  UNL1        0.1464
     14 H          -3.0661    0.3318    0.8895 H       1  UNL1        0.1375
     15 H          -3.0661    0.3318   -0.8895 H       1  UNL1        0.1375
@<TRIPOS>BOND
     1    15    12    1
     2     8     5    1
     3    13    12    1
     4     9     4    1
     5     4     5    1
     6     4     1    2
     7    12    11    1
     8    12    14    1
     9    11     2    1
    10     5     7    1
    11     5     6    1
    12     2     3    2
    13     2     1    1
    14     1    10    1
