@<TRIPOS>MOLECULE
GS-482-0.out
 27 27 0 0 0
SMALL
MULLIKEN_CHARGES
****
Gaussian 16 # wB97XD def2tzvp, opt=(calcfc, maxcycles=70, maxstep=10), freq=norama
@<TRIPOS>ATOM
      1 C          -0.8494   -0.0025   -0.0360 C.2     1  UNL1       -0.0697
      2 C          -1.4498   -1.3657    0.0518 C.2     1  UNL1        0.2362
      3 O          -2.5382   -1.6350   -0.4204 O.2     1  UNL1       -0.4123
      4 C          -1.5986    1.1152   -0.0630 C.2     1  UNL1        0.0700
      5 C          -0.9852    2.4809   -0.1688 C.3     1  UNL1       -0.3871
      6 H          -1.5311    3.0657   -0.9131 H       1  UNL1        0.1460
      7 H          -1.0901    3.0100    0.7826 H       1  UNL1        0.1499
      8 H           0.0677    2.4608   -0.4379 H       1  UNL1        0.1449
      9 C          -3.0959    1.1482    0.0266 C.3     1  UNL1       -0.3651
     10 H          -3.4052    2.0322    0.5880 H       1  UNL1        0.1319
     11 H          -3.5229    1.2407   -0.9758 H       1  UNL1        0.1459
     12 H          -3.5203    0.2592    0.4824 H       1  UNL1        0.1368
     13 C           0.6432    0.0517   -0.0443 C.ar    1  UNL1        0.1361
     14 C           1.3531    0.4796    1.0745 C.ar    1  UNL1       -0.2341
     15 C           2.7396    0.5119    1.0649 C.ar    1  UNL1       -0.1326
     16 C           3.4373    0.1137   -0.0668 C.ar    1  UNL1       -0.1400
     17 C           2.7403   -0.3171   -1.1867 C.ar    1  UNL1       -0.1400
     18 C           1.3537   -0.3501   -1.1726 C.ar    1  UNL1       -0.2141
     19 H           0.8100    0.7908    1.9589 H       1  UNL1        0.1472
     20 H           3.2760    0.8483    1.9432 H       1  UNL1        0.1430
     21 H           4.5196    0.1387   -0.0757 H       1  UNL1        0.1451
     22 H           3.2771   -0.6279   -2.0742 H       1  UNL1        0.1427
     23 H           0.8135   -0.6887   -2.0492 H       1  UNL1        0.1434
     24 C          -0.6394   -2.4289    0.7513 C.3     1  UNL1       -0.3617
     25 H          -0.2310   -2.0545    1.6912 H       1  UNL1        0.1468
     26 H          -1.2621   -3.3027    0.9286 H       1  UNL1        0.1381
     27 H           0.2107   -2.7136    0.1276 H       1  UNL1        0.1528
@<TRIPOS>BOND
     1    22    17    1
     2    23    18    1
     3    17    18   ar
     4    17    16   ar
     5    18    13   ar
     6    11     9    1
     7     6     5    1
     8     8     5    1
     9     3     2    2
    10     5     4    1
    11     5     7    1
    12    21    16    1
    13    16    15   ar
    14     4     1    2
    15     4     9    1
    16    13     1    1
    17    13    14   ar
    18     1     2    1
    19     9    12    1
    20     9    10    1
    21     2    24    1
    22    27    24    1
    23    24    26    1
    24    24    25    1
    25    15    14   ar
    26    15    20    1
    27    14    19    1
