@<TRIPOS>MOLECULE
GS-474-0.out
 14 13 0 0 0
SMALL
MULLIKEN_CHARGES
****
Gaussian 16 # wB97XD def2tzvp, opt=(calcfc, maxcycles=70, maxstep=10), freq=norama
@<TRIPOS>ATOM
      1 C          -0.1691   -0.1117    0.0000 C.2     1  UNL1       -0.0702
      2 C           1.2622   -0.5630   -0.0000 C.2     1  UNL1        0.2962
      3 O           1.5124   -1.7489   -0.0000 O.2     1  UNL1       -0.3989
      4 C          -1.1692   -0.9888    0.0000 C.2     1  UNL1       -0.0649
      5 C          -2.6282   -0.7235   -0.0000 C.3     1  UNL1       -0.3268
      6 H          -3.0854   -1.1904   -0.8757 H       1  UNL1        0.1482
      7 H          -3.0854   -1.1904    0.8757 H       1  UNL1        0.1482
      8 H          -2.8642    0.3380   -0.0000 H       1  UNL1        0.1307
      9 H          -0.8557   -2.0276    0.0000 H       1  UNL1        0.1666
     10 CL         -0.4657    1.6092   -0.0000 Cl      1  UNL1       -0.1096
     11 C           2.3494    0.4709   -0.0000 C.3     1  UNL1       -0.3762
     12 H           2.2611    1.1147    0.8768 H       1  UNL1        0.1581
     13 H           3.3154   -0.0269   -0.0000 H       1  UNL1        0.1404
     14 H           2.2611    1.1148   -0.8768 H       1  UNL1        0.1581
@<TRIPOS>BOND
     1    14    11    1
     2     6     5    1
     3    13    11    1
     4     8     5    1
     5     2     1    1
     6     2     3    2
     7     2    11    1
     8     1     4    2
     9     1    10    1
    10     4     5    1
    11     4     9    1
    12     5     7    1
    13    11    12    1
