@<TRIPOS>MOLECULE
GS-489-0.out
 14 13 0 0 0
SMALL
MULLIKEN_CHARGES
****
Gaussian 16 # wB97XD def2tzvp, opt=(calcfc, maxcycles=70, maxstep=10), freq=norama
@<TRIPOS>ATOM
      1 C          -0.3901   -0.5405    0.0000 C.2     1  UNL1       -0.2171
      2 C          -1.6096    0.2502    0.0000 C.2     1  UNL1        0.1770
      3 O          -2.7231   -0.2390   -0.0000 O.2     1  UNL1       -0.4125
      4 C           0.8609   -0.0510    0.0000 C.2     1  UNL1        0.0512
      5 C           2.0336   -0.9807   -0.0000 C.3     1  UNL1       -0.3362
      6 H           2.6588   -0.7925    0.8767 H       1  UNL1        0.1433
      7 H           1.7308   -2.0262   -0.0000 H       1  UNL1        0.1336
      8 H           2.6588   -0.7925   -0.8767 H       1  UNL1        0.1433
      9 C           1.2255    1.4012   -0.0000 C.3     1  UNL1       -0.3165
     10 H           1.8412    1.6183    0.8762 H       1  UNL1        0.1455
     11 H           1.8412    1.6183   -0.8762 H       1  UNL1        0.1455
     12 H           0.3768    2.0784    0.0000 H       1  UNL1        0.1172
     13 H          -0.5421   -1.6152    0.0000 H       1  UNL1        0.1368
     14 H          -1.5026    1.3477    0.0000 H       1  UNL1        0.0890
@<TRIPOS>BOND
     1     8     5    1
     2    11     9    1
     3     3     2    2
     4     5     7    1
     5     5     4    1
     6     5     6    1
     7     4     9    1
     8     4     1    2
     9     9    12    1
    10     9    10    1
    11     2     1    1
    12     2    14    1
    13     1    13    1
