@<TRIPOS>MOLECULE
GS-475-0.out
 13 12 0 0 0
SMALL
MULLIKEN_CHARGES
****
Gaussian 16 # wB97XD def2tzvp, opt=(calcfc, maxcycles=70, maxstep=10), freq=norama
@<TRIPOS>ATOM
      1 C          -0.1453   -0.1001    0.0000 C.2     1  UNL1       -0.0449
      2 C           1.3075   -0.4901    0.0000 C.2     1  UNL1        0.3263
      3 O           1.6281   -1.6699    0.0000 O.2     1  UNL1       -0.4771
      4 C          -1.0949   -1.0267   -0.0000 C.2     1  UNL1       -0.0824
      5 C          -2.5668   -0.8359   -0.0000 C.3     1  UNL1       -0.3249
      6 H          -3.0007   -1.3231    0.8762 H       1  UNL1        0.1467
      7 H          -2.8558    0.2127   -0.0000 H       1  UNL1        0.1305
      8 H          -3.0007   -1.3231   -0.8762 H       1  UNL1        0.1467
      9 H          -0.7253   -2.0464   -0.0000 H       1  UNL1        0.1681
     10 CL         -0.5297    1.6044    0.0000 Cl      1  UNL1       -0.1170
     11 N           2.2057    0.5055   -0.0000 N.am    1  UNL1       -0.4368
     12 H           3.1827    0.2711   -0.0000 H       1  UNL1        0.2840
     13 H           1.9362    1.4722   -0.0000 H       1  UNL1        0.2810
@<TRIPOS>BOND
     1     8     5    1
     2    13    11    1
     3    11    12    1
     4    11     2   am
     5     7     5    1
     6     5     4    1
     7     5     6    1
     8     4     9    1
     9     4     1    2
    10     2     1    1
    11     2     3    2
    12     1    10    1
