@<TRIPOS>MOLECULE
GS-410-0.out
 24 24 0 0 0
SMALL
MULLIKEN_CHARGES
****
Gaussian 16 # wB97XD def2tzvp, opt=(calcfc, maxcycles=70, maxstep=10), freq=norama
@<TRIPOS>ATOM
      1 C           1.9272    0.6474   -0.0372 C.2     1  UNL1       -0.2845
      2 C           2.3025   -0.7754    0.1093 C.2     1  UNL1        0.2858
      3 O           3.4714   -1.0773   -0.0657 O.2     1  UNL1       -0.4207
      4 C           0.7203    1.2243   -0.0801 C.2     1  UNL1        0.0643
      5 C           0.5903    2.7146   -0.1913 C.3     1  UNL1       -0.3394
      6 H          -0.0011    3.0985    0.6440 H       1  UNL1        0.1480
      7 H           1.5599    3.2099   -0.1966 H       1  UNL1        0.1327
      8 H           0.0487    2.9752   -1.1040 H       1  UNL1        0.1466
      9 C          -0.5772    0.4988   -0.0613 C.ar    1  UNL1        0.2090
     10 C          -1.3840    0.5276    1.0729 C.ar    1  UNL1       -0.2258
     11 C          -2.6010   -0.1362    1.0841 C.ar    1  UNL1       -0.1301
     12 C          -3.0344   -0.8168   -0.0452 C.ar    1  UNL1       -0.1466
     13 C          -2.2458   -0.8282   -1.1864 C.ar    1  UNL1       -0.1146
     14 C          -1.0235   -0.1732   -1.1947 C.ar    1  UNL1       -0.2749
     15 H          -1.0481    1.0557    1.9574 H       1  UNL1        0.1507
     16 H          -3.2124   -0.1212    1.9774 H       1  UNL1        0.1458
     17 H          -3.9858   -1.3331   -0.0366 H       1  UNL1        0.1468
     18 H          -2.5804   -1.3511   -2.0734 H       1  UNL1        0.1459
     19 H          -0.4042   -0.1891   -2.0833 H       1  UNL1        0.1547
     20 H           2.7989    1.2889   -0.1203 H       1  UNL1        0.1278
     21 C           1.3062   -1.8348    0.4988 C.3     1  UNL1       -0.3568
     22 H           0.6329   -1.4887    1.2820 H       1  UNL1        0.1433
     23 H           0.6887   -2.0961   -0.3621 H       1  UNL1        0.1522
     24 H           1.8482   -2.7191    0.8271 H       1  UNL1        0.1398
@<TRIPOS>BOND
     1    19    14    1
     2    18    13    1
     3    14    13   ar
     4    14     9   ar
     5    13    12   ar
     6     8     5    1
     7    23    21    1
     8     7     5    1
     9     5     4    1
    10     5     6    1
    11    20     1    1
    12     4     9    1
    13     4     1    2
    14     3     2    2
    15     9    10   ar
    16    12    17    1
    17    12    11   ar
    18     1     2    1
    19     2    21    1
    20    21    24    1
    21    21    22    1
    22    10    11   ar
    23    10    15    1
    24    11    16    1
