@<TRIPOS>MOLECULE
GS-456-0.out
 21 21 0 0 0
SMALL
MULLIKEN_CHARGES
****
Gaussian 16 # wB97XD def2tzvp, opt=(calcfc, maxcycles=70, maxstep=10), freq=norama
@<TRIPOS>ATOM
      1 C          -1.8153   -0.2745    0.1520 C.2     1  UNL1       -0.2948
      2 C          -0.7210    0.6927   -0.0868 C.2     1  UNL1        0.3557
      3 O          -0.9434    1.8691   -0.3169 O.2     1  UNL1       -0.4284
      4 C          -3.0895    0.0572   -0.0477 C.2     1  UNL1       -0.0490
      5 C          -4.2537   -0.8388    0.1786 C.3     1  UNL1       -0.3363
      6 H          -4.9379   -0.3894    0.9029 H       1  UNL1        0.1421
      7 H          -4.8204   -0.9617   -0.7478 H       1  UNL1        0.1425
      8 H          -3.9507   -1.8208    0.5407 H       1  UNL1        0.1315
      9 H          -3.3032    1.0605   -0.4059 H       1  UNL1        0.1482
     10 H          -1.5632   -1.2655    0.5079 H       1  UNL1        0.1548
     11 C           0.6906    0.1987   -0.0253 C.ar    1  UNL1        0.1239
     12 C           1.7095    1.1258    0.1909 C.ar    1  UNL1       -0.2090
     13 C           3.0309    0.7193    0.2384 C.ar    1  UNL1       -0.1258
     14 C           3.3519   -0.6197    0.0526 C.ar    1  UNL1       -0.1294
     15 C           2.3470   -1.5478   -0.1753 C.ar    1  UNL1       -0.1427
     16 C           1.0210   -1.1430   -0.2056 C.ar    1  UNL1       -0.2277
     17 H           1.4490    2.1673    0.3262 H       1  UNL1        0.1466
     18 H           3.8136    1.4451    0.4185 H       1  UNL1        0.1479
     19 H           4.3861   -0.9384    0.0848 H       1  UNL1        0.1504
     20 H           2.5944   -2.5901   -0.3291 H       1  UNL1        0.1484
     21 H           0.2509   -1.8790   -0.3938 H       1  UNL1        0.1510
@<TRIPOS>BOND
     1     7     5    1
     2     9     4    1
     3    21    16    1
     4    20    15    1
     5     3     2    2
     6    16    15   ar
     7    16    11   ar
     8    15    14   ar
     9     2    11    1
    10     2     1    1
    11     4     1    2
    12     4     5    1
    13    11    12   ar
    14    14    19    1
    15    14    13   ar
    16     1    10    1
    17     5     8    1
    18     5     6    1
    19    12    13   ar
    20    12    17    1
    21    13    18    1
