@<TRIPOS>MOLECULE
GS-432-1.out
 31 32 0 0 0
SMALL
MULLIKEN_CHARGES
****
Gaussian 16 # wB97XD def2tzvp, opt=(calcfc, maxcycles=70, maxstep=1), freq=noraman
@<TRIPOS>ATOM
      1 C          -1.3716    0.1562    0.1161 C.2     1  UNL1       -0.0300
      2 C          -0.5787   -0.8839    0.8625 C.2     1  UNL1        0.2385
      3 O          -0.9355   -1.2507    1.9605 O.2     1  UNL1       -0.3651
      4 C          -0.8903    1.3232   -0.3145 C.2     1  UNL1       -0.0346
      5 C          -1.6781    2.3666   -1.0426 C.3     1  UNL1       -0.3397
      6 H          -1.1413    2.6737   -1.9420 H       1  UNL1        0.1461
      7 H          -2.6694    2.0233   -1.3253 H       1  UNL1        0.1370
      8 H          -1.7766    3.2544   -0.4135 H       1  UNL1        0.1523
      9 C           0.5290    1.6682   -0.0249 C.ar    1  UNL1        0.2359
     10 C           1.4113    1.9503   -1.0664 C.ar    1  UNL1       -0.2378
     11 C           2.7386    2.2401   -0.8010 C.ar    1  UNL1       -0.1465
     12 C           3.1983    2.2723    0.5096 C.ar    1  UNL1       -0.1305
     13 C           2.3219    2.0160    1.5520 C.ar    1  UNL1       -0.1475
     14 C           0.9940    1.7153    1.2860 C.ar    1  UNL1       -0.2305
     15 H           1.0656    1.9128   -2.0920 H       1  UNL1        0.1584
     16 H           3.4186    2.4383   -1.6197 H       1  UNL1        0.1458
     17 H           4.2363    2.5006    0.7151 H       1  UNL1        0.1474
     18 H           2.6698    2.0483    2.5765 H       1  UNL1        0.1457
     19 H           0.3109    1.5188    2.1030 H       1  UNL1        0.1595
     20 BR         -3.1951   -0.3470   -0.0891 Br      1  UNL1       -0.0719
     21 C           0.6204   -1.4668    0.1991 C.ar    1  UNL1        0.1431
     22 C           1.5966   -2.0678    0.9912 C.ar    1  UNL1       -0.2436
     23 C           2.7114   -2.6396    0.4056 C.ar    1  UNL1       -0.1147
     24 C           2.8485   -2.6333   -0.9774 C.ar    1  UNL1       -0.1255
     25 C           1.8728   -2.0487   -1.7715 C.ar    1  UNL1       -0.1423
     26 C           0.7655   -1.4575   -1.1852 C.ar    1  UNL1       -0.2158
     27 H           1.4762   -2.0690    2.0665 H       1  UNL1        0.1494
     28 H           3.4756   -3.0913    1.0247 H       1  UNL1        0.1494
     29 H           3.7193   -3.0845   -1.4357 H       1  UNL1        0.1514
     30 H           1.9770   -2.0475   -2.8486 H       1  UNL1        0.1488
     31 H           0.0109   -0.9916   -1.8054 H       1  UNL1        0.1675
@<TRIPOS>BOND
     1    30    25    1
     2    15    10    1
     3     6     5    1
     4    31    26    1
     5    25    26   ar
     6    25    24   ar
     7    16    11    1
     8    29    24    1
     9     7     5    1
    10    26    21   ar
    11    10    11   ar
    12    10     9   ar
    13     5     8    1
    14     5     4    1
    15    24    23   ar
    16    11    12   ar
    17     4     9    1
    18     4     1    2
    19    20     1    1
    20     9    14   ar
    21     1     2    1
    22    21     2    1
    23    21    22   ar
    24    23    22   ar
    25    23    28    1
    26    12    17    1
    27    12    13   ar
    28     2     3    2
    29    22    27    1
    30    14    13   ar
    31    14    19    1
    32    13    18    1
