@<TRIPOS>MOLECULE
GS-483-0.out
 26 26 0 0 0
SMALL
MULLIKEN_CHARGES
****
Gaussian 16 # wB97XD def2tzvp, opt=(calcfc, maxcycles=70, maxstep=10), freq=norama
@<TRIPOS>ATOM
      1 C           0.8375   -0.0020    0.0220 C.2     1  UNL1       -0.0096
      2 C           1.4525   -1.3657   -0.1119 C.2     1  UNL1        0.2731
      3 O           2.5100   -1.6886    0.4163 O.2     1  UNL1       -0.4770
      4 C           1.5849    1.1099    0.0966 C.2     1  UNL1        0.0409
      5 C           0.9766    2.4700    0.2862 C.3     1  UNL1       -0.3871
      6 H           1.5441    3.0185    1.0418 H       1  UNL1        0.1421
      7 H           1.0498    3.0460   -0.6404 H       1  UNL1        0.1483
      8 H          -0.0677    2.4356    0.5867 H       1  UNL1        0.1444
      9 C           3.0814    1.1465   -0.0109 C.3     1  UNL1       -0.3629
     10 H           3.3751    2.0029   -0.6225 H       1  UNL1        0.1308
     11 H           3.5191    1.3010    0.9793 H       1  UNL1        0.1426
     12 H           3.5064    0.2389   -0.4265 H       1  UNL1        0.1361
     13 C          -0.6542    0.0377    0.0415 C.ar    1  UNL1        0.0418
     14 C          -1.3699    0.6046   -1.0105 C.ar    1  UNL1       -0.2133
     15 C          -2.7575    0.6240   -0.9959 C.ar    1  UNL1       -0.1321
     16 C          -3.4494    0.0725    0.0720 C.ar    1  UNL1       -0.1325
     17 C          -2.7468   -0.5010    1.1234 C.ar    1  UNL1       -0.1548
     18 C          -1.3612   -0.5220    1.1046 C.ar    1  UNL1       -0.1741
     19 H          -0.8309    1.0361   -1.8453 H       1  UNL1        0.1473
     20 H          -3.2975    1.0703   -1.8214 H       1  UNL1        0.1441
     21 H          -4.5318    0.0873    0.0852 H       1  UNL1        0.1461
     22 H          -3.2800   -0.9334    1.9608 H       1  UNL1        0.1432
     23 H          -0.8176   -0.9735    1.9265 H       1  UNL1        0.1431
     24 N           0.7474   -2.2414   -0.8598 N.am    1  UNL1       -0.4414
     25 H           1.0867   -3.1819   -0.9590 H       1  UNL1        0.2737
     26 H          -0.1303   -1.9963   -1.2807 H       1  UNL1        0.2877
@<TRIPOS>BOND
     1    19    14    1
     2    20    15    1
     3    26    24    1
     4    14    15   ar
     5    14    13   ar
     6    15    16   ar
     7    25    24    1
     8    24     2   am
     9     7     5    1
    10    10     9    1
    11    12     9    1
    12     2     1    1
    13     2     3    2
    14     9     4    1
    15     9    11    1
    16     1    13    1
    17     1     4    2
    18    13    18   ar
    19    16    21    1
    20    16    17   ar
    21     4     5    1
    22     5     8    1
    23     5     6    1
    24    18    17   ar
    25    18    23    1
    26    17    22    1
