@<TRIPOS>MOLECULE
GS-444-0.out
 25 25 0 0 0
SMALL
MULLIKEN_CHARGES
****
Gaussian 16 # wB97XD def2tzvp, opt=(calcfc, maxcycles=70, maxstep=10), freq=norama
@<TRIPOS>ATOM
      1 C          -0.6539    0.7966   -0.0610 C.2     1  UNL1       -0.0930
      2 C          -1.8936   -0.0301    0.0109 C.2     1  UNL1        0.4291
      3 O          -3.0209    0.3970   -0.0865 O.2     1  UNL1       -0.4418
      4 C          -0.8080    2.1206   -0.1351 C.2     1  UNL1       -0.0600
      5 C           0.2695    3.1414   -0.2282 C.3     1  UNL1       -0.3441
      6 H           0.0876    3.7923   -1.0866 H       1  UNL1        0.1446
      7 H           0.2532    3.7829    0.6568 H       1  UNL1        0.1462
      8 H           1.2605    2.7008   -0.3196 H       1  UNL1        0.1406
      9 H          -1.8269    2.4941   -0.1348 H       1  UNL1        0.1512
     10 C           0.6737    0.1259   -0.0321 C.ar    1  UNL1        0.1649
     11 C           1.5071    0.2606    1.0741 C.ar    1  UNL1       -0.2522
     12 C           2.7547   -0.3467    1.0982 C.ar    1  UNL1       -0.1328
     13 C           3.1838   -1.0972    0.0139 C.ar    1  UNL1       -0.1415
     14 C           2.3588   -1.2373   -1.0942 C.ar    1  UNL1       -0.1416
     15 C           1.1126   -0.6314   -1.1154 C.ar    1  UNL1       -0.2340
     16 H           1.1738    0.8468    1.9220 H       1  UNL1        0.1470
     17 H           3.3915   -0.2324    1.9665 H       1  UNL1        0.1432
     18 H           4.1570   -1.5713    0.0308 H       1  UNL1        0.1452
     19 H           2.6878   -1.8196   -1.9457 H       1  UNL1        0.1431
     20 H           0.4721   -0.7448   -1.9818 H       1  UNL1        0.1421
     21 O          -1.6249   -1.3201    0.2103 O.3     1  UNL1       -0.2713
     22 C          -2.7461   -2.1992    0.2941 C.3     1  UNL1       -0.2084
     23 H          -2.3317   -3.1905    0.4523 H       1  UNL1        0.1459
     24 H          -3.3885   -1.9204    1.1287 H       1  UNL1        0.1385
     25 H          -3.3214   -2.1733   -0.6307 H       1  UNL1        0.1388
@<TRIPOS>BOND
     1    20    15    1
     2    19    14    1
     3    15    14   ar
     4    15    10   ar
     5    14    13   ar
     6     6     5    1
     7    25    22    1
     8     8     5    1
     9     5     4    1
    10     5     7    1
    11     4     9    1
    12     4     1    2
    13     3     2    2
    14     1    10    1
    15     1     2    1
    16    10    11   ar
    17     2    21    1
    18    13    18    1
    19    13    12   ar
    20    21    22    1
    21    22    23    1
    22    22    24    1
    23    11    12   ar
    24    11    16    1
    25    12    17    1
