@<TRIPOS>MOLECULE
GS-469-0.out
 16 15 0 0 0
SMALL
MULLIKEN_CHARGES
****
Gaussian 16 # wB97XD def2tzvp, opt=(calcfc, maxcycles=70, maxstep=10), freq=norama
@<TRIPOS>ATOM
      1 C           0.2770    0.5500    0.0000 C.2     1  UNL1       -0.1067
      2 C          -1.2216    0.6985    0.0001 C.2     1  UNL1        0.3821
      3 O          -1.7253    1.8158    0.0003 O.2     1  UNL1       -0.4974
      4 C           1.0556    1.6243   -0.0001 C.2     1  UNL1       -0.0785
      5 C           2.5373    1.7106   -0.0002 C.3     1  UNL1       -0.3262
      6 H           2.8714    2.2715    0.8758 H       1  UNL1        0.1467
      7 H           3.0203    0.7360   -0.0001 H       1  UNL1        0.1330
      8 H           2.8713    2.2714   -0.8763 H       1  UNL1        0.1467
      9 H           0.5115    2.5637   -0.0001 H       1  UNL1        0.1670
     10 BR          1.0171   -1.2090    0.0000 Br      1  UNL1       -0.1020
     11 N          -1.9581   -0.4189   -0.0001 N.am    1  UNL1       -0.3003
     12 C          -3.4033   -0.3701   -0.0002 C.3     1  UNL1       -0.2534
     13 H          -1.5002   -1.3129   -0.0002 H       1  UNL1        0.2634
     14 H          -3.7843   -1.3880   -0.0001 H       1  UNL1        0.1487
     15 H          -3.7746    0.1492    0.8844 H       1  UNL1        0.1385
     16 H          -3.7746    0.1491   -0.8848 H       1  UNL1        0.1385
@<TRIPOS>BOND
     1    16    12    1
     2     8     5    1
     3    13    11    1
     4     5     7    1
     5     5     4    1
     6     5     6    1
     7    12    11    1
     8    12    14    1
     9    12    15    1
    10    11     2   am
    11     9     4    1
    12     4     1    2
    13     1    10    1
    14     1     2    1
    15     2     3    2
