@<TRIPOS>MOLECULE
GS-499-0.out
 19 18 0 0 0
SMALL
MULLIKEN_CHARGES
****
Gaussian 16 # wB97XD def2tzvp, opt=(calcfc, maxcycles=70, maxstep=10), freq=norama
@<TRIPOS>ATOM
      1 C          -0.0353    0.5207    0.0490 C.2     1  UNL1       -0.0460
      2 C           1.3411   -0.0731   -0.0857 C.2     1  UNL1        0.2773
      3 O           2.0739    0.2074   -1.0265 O.2     1  UNL1       -0.4761
      4 C          -1.1309   -0.2376   -0.0498 C.2     1  UNL1       -0.0034
      5 C          -2.5324    0.2951    0.0502 C.3     1  UNL1       -0.3565
      6 H          -3.1022   -0.3038    0.7655 H       1  UNL1        0.1313
      7 H          -2.5893    1.3347    0.3611 H       1  UNL1        0.1172
      8 H          -3.0402    0.1979   -0.9135 H       1  UNL1        0.1381
      9 C          -1.0901   -1.7202   -0.3094 C.3     1  UNL1       -0.3662
     10 H          -1.4803   -2.2680    0.5530 H       1  UNL1        0.1398
     11 H          -1.7404   -1.9614   -1.1541 H       1  UNL1        0.1316
     12 H          -0.0939   -2.0975   -0.5299 H       1  UNL1        0.1342
     13 C           0.0135    2.0129    0.2317 C.3     1  UNL1       -0.3339
     14 H           0.5544    2.4699   -0.5997 H       1  UNL1        0.1349
     15 H          -0.9730    2.4651    0.2820 H       1  UNL1        0.1158
     16 H           0.5535    2.2721    1.1464 H       1  UNL1        0.1342
     17 N           1.7369   -0.8778    0.9178 N.am    1  UNL1       -0.4417
     18 H           2.6468   -1.3054    0.8854 H       1  UNL1        0.2761
     19 H           1.1193   -1.1051    1.6754 H       1  UNL1        0.2934
@<TRIPOS>BOND
     1    11     9    1
     2     3     2    2
     3     8     5    1
     4    14    13    1
     5    12     9    1
     6     9     4    1
     7     9    10    1
     8     2     1    1
     9     2    17   am
    10     4     1    2
    11     4     5    1
    12     1    13    1
    13     5     7    1
    14     5     6    1
    15    13    15    1
    16    13    16    1
    17    18    17    1
    18    17    19    1
