@<TRIPOS>MOLECULE
GS-422-0.out
 32 32 0 0 0
SMALL
MULLIKEN_CHARGES
****
Gaussian 16 # wB97XD def2tzvp, opt=(calcfc, maxcycles=70, maxstep=10), freq=norama
@<TRIPOS>ATOM
      1 C           1.4643    0.9319   -0.1699 C.2     1  UNL1       -0.0322
      2 C           1.5718   -0.5438   -0.4590 C.2     1  UNL1        0.2127
      3 O           1.9356   -0.9049   -1.5779 O.2     1  UNL1       -0.5009
      4 C           0.2725    1.5241   -0.0497 C.2     1  UNL1       -0.0117
      5 C           0.0680    2.9973    0.1707 C.3     1  UNL1       -0.3338
      6 H          -0.4807    3.1698    1.0996 H       1  UNL1        0.1350
      7 H           0.9970    3.5583    0.2232 H       1  UNL1        0.1145
      8 H          -0.5405    3.4136   -0.6358 H       1  UNL1        0.1388
      9 C          -0.9902    0.7339   -0.1287 C.ar    1  UNL1        0.1954
     10 C          -1.8827    0.7255    0.9430 C.ar    1  UNL1       -0.2780
     11 C          -3.0550   -0.0114    0.8853 C.ar    1  UNL1       -0.1329
     12 C          -3.3635   -0.7433   -0.2532 C.ar    1  UNL1       -0.1453
     13 C          -2.4912   -0.7308   -1.3313 C.ar    1  UNL1       -0.1547
     14 C          -1.3156    0.0033   -1.2696 C.ar    1  UNL1       -0.2084
     15 H          -1.6486    1.2848    1.8408 H       1  UNL1        0.1538
     16 H          -3.7285   -0.0161    1.7332 H       1  UNL1        0.1421
     17 H          -4.2803   -1.3173   -0.2999 H       1  UNL1        0.1434
     18 H          -2.7261   -1.2928   -2.2267 H       1  UNL1        0.1413
     19 H          -0.6377    0.0085   -2.1136 H       1  UNL1        0.1442
     20 C           2.8081    1.6006   -0.1249 C.3     1  UNL1       -0.3451
     21 H           3.4019    1.1990    0.7013 H       1  UNL1        0.1392
     22 H           3.3578    1.3921   -1.0449 H       1  UNL1        0.1400
     23 H           2.7447    2.6780   -0.0011 H       1  UNL1        0.1194
     24 N           1.3002   -1.4168    0.5315 N.am    1  UNL1       -0.0799
     25 C           1.3146   -2.8407    0.2675 C.3     1  UNL1       -0.2813
     26 C           0.9828   -1.0499    1.8958 C.3     1  UNL1       -0.3043
     27 H           1.4329   -3.0106   -0.7976 H       1  UNL1        0.1488
     28 H           2.1363   -3.3229    0.8031 H       1  UNL1        0.1416
     29 H           0.3747   -3.2827    0.6053 H       1  UNL1        0.1366
     30 H           1.1322    0.0134    2.0533 H       1  UNL1        0.1636
     31 H          -0.0562   -1.2968    2.1277 H       1  UNL1        0.1503
     32 H           1.6323   -1.6020    2.5783 H       1  UNL1        0.1479
@<TRIPOS>BOND
     1    18    13    1
     2    19    14    1
     3     3     2    2
     4    13    14   ar
     5    13    12   ar
     6    14     9   ar
     7    22    20    1
     8    27    25    1
     9     8     5    1
    10     2     1    1
    11     2    24   am
    12    17    12    1
    13    12    11   ar
    14     1    20    1
    15     1     4    2
    16     9     4    1
    17     9    10   ar
    18    20    23    1
    19    20    21    1
    20     4     5    1
    21     5     7    1
    22     5     6    1
    23    25    24    1
    24    25    29    1
    25    25    28    1
    26    24    26    1
    27    11    10   ar
    28    11    16    1
    29    10    15    1
    30    26    30    1
    31    26    31    1
    32    26    32    1
