@<TRIPOS>MOLECULE
GS-461-0.out
 19 18 0 0 0
SMALL
MULLIKEN_CHARGES
****
Gaussian 16 # wB97XD def2tzvp, opt=(calcfc, maxcycles=70, maxstep=10), freq=norama
@<TRIPOS>ATOM
      1 C           0.7373    0.3046    0.0549 C.2     1  UNL1       -0.0609
      2 C          -0.7528    0.3570   -0.1213 C.2     1  UNL1        0.3613
      3 O          -1.3033    1.3399   -0.6115 O.2     1  UNL1       -0.5093
      4 C           1.3941   -0.8280   -0.1993 C.2     1  UNL1       -0.1547
      5 C           2.8660   -1.0705   -0.1351 C.3     1  UNL1       -0.3373
      6 H           3.4338   -0.2023    0.1922 H       1  UNL1        0.1170
      7 H           3.0781   -1.8955    0.5495 H       1  UNL1        0.1357
      8 H           3.2403   -1.3746   -1.1159 H       1  UNL1        0.1366
      9 H           0.8126   -1.6896   -0.5157 H       1  UNL1        0.1492
     10 C           1.3560    1.6164    0.4370 C.3     1  UNL1       -0.3406
     11 H           2.4362    1.5501    0.5393 H       1  UNL1        0.1161
     12 H           1.1253    2.3723   -0.3151 H       1  UNL1        0.1341
     13 H           0.9437    1.9735    1.3837 H       1  UNL1        0.1347
     14 N          -1.4519   -0.7175    0.2863 N.am    1  UNL1       -0.3191
     15 C          -2.8877   -0.7979    0.1422 C.3     1  UNL1       -0.2494
     16 H          -0.9721   -1.4453    0.7834 H       1  UNL1        0.2742
     17 H          -3.2196   -1.7706    0.4970 H       1  UNL1        0.1453
     18 H          -3.3881   -0.0196    0.7220 H       1  UNL1        0.1318
     19 H          -3.1777   -0.6852   -0.9030 H       1  UNL1        0.1350
@<TRIPOS>BOND
     1     8     5    1
     2    19    15    1
     3     3     2    2
     4     9     4    1
     5    12    10    1
     6     4     5    1
     7     4     1    2
     8     5     6    1
     9     5     7    1
    10     2     1    1
    11     2    14   am
    12     1    10    1
    13    15    14    1
    14    15    17    1
    15    15    18    1
    16    14    16    1
    17    10    11    1
    18    10    13    1
