@<TRIPOS>MOLECULE
GS-442-1.out
 24 24 0 0 0
SMALL
MULLIKEN_CHARGES
****
Gaussian 16 # wB97XD def2tzvp, opt=(calcfc, maxcycles=70, maxstep=1), freq=noraman
@<TRIPOS>ATOM
      1 C          -1.0761    0.2782    0.0252 C.2     1  UNL1       -0.0783
      2 C          -1.9791   -0.9162   -0.0624 C.2     1  UNL1        0.2637
      3 O          -3.1862   -0.8115    0.0318 O.2     1  UNL1       -0.4160
      4 C          -1.6351    1.4895    0.0867 C.2     1  UNL1       -0.0613
      5 C          -0.9285    2.7949    0.1717 C.3     1  UNL1       -0.3430
      6 H          -1.1834    3.4141   -0.6923 H       1  UNL1        0.1443
      7 H          -1.2671    3.3425    1.0549 H       1  UNL1        0.1442
      8 H           0.1536    2.6852    0.2170 H       1  UNL1        0.1393
      9 H          -2.7203    1.5258    0.0753 H       1  UNL1        0.1469
     10 C           0.3994    0.0744    0.0174 C.ar    1  UNL1        0.0979
     11 C           1.0694   -0.2985    1.1798 C.ar    1  UNL1       -0.2183
     12 C           2.4435   -0.4862    1.1749 C.ar    1  UNL1       -0.1444
     13 C           3.1668   -0.3041    0.0045 C.ar    1  UNL1       -0.1351
     14 C           2.5087    0.0682   -1.1588 C.ar    1  UNL1       -0.1397
     15 C           1.1342    0.2557   -1.1512 C.ar    1  UNL1       -0.2111
     16 H           0.5084   -0.4399    2.0961 H       1  UNL1        0.1489
     17 H           2.9504   -0.7730    2.0876 H       1  UNL1        0.1434
     18 H           4.2394   -0.4506   -0.0002 H       1  UNL1        0.1456
     19 H           3.0663    0.2143   -2.0754 H       1  UNL1        0.1435
     20 H           0.6220    0.5470   -2.0604 H       1  UNL1        0.1434
     21 C          -1.3354   -2.2583   -0.2818 C.3     1  UNL1       -0.3553
     22 H          -0.7032   -2.5113    0.5720 H       1  UNL1        0.1535
     23 H          -2.1015   -3.0189   -0.4097 H       1  UNL1        0.1375
     24 H          -0.6821   -2.2286   -1.1559 H       1  UNL1        0.1503
@<TRIPOS>BOND
     1    19    14    1
     2    20    15    1
     3    14    15   ar
     4    14    13   ar
     5    24    21    1
     6    15    10   ar
     7     6     5    1
     8    23    21    1
     9    21     2    1
    10    21    22    1
    11     2     1    1
    12     2     3    2
    13    18    13    1
    14    13    12   ar
    15    10     1    1
    16    10    11   ar
    17     1     4    2
    18     9     4    1
    19     4     5    1
    20     5     8    1
    21     5     7    1
    22    12    11   ar
    23    12    17    1
    24    11    16    1
