@<TRIPOS>MOLECULE
GS-477-0.out
 16 15 0 0 0
SMALL
MULLIKEN_CHARGES
****
Gaussian 16 # wB97XD def2tzvp, opt=(calcfc, maxcycles=70, maxstep=10), freq=norama
@<TRIPOS>ATOM
      1 C          -0.5847   -0.1048    0.0000 C.2     1  UNL1       -0.0756
      2 C           0.8549   -0.5420   -0.0000 C.2     1  UNL1        0.3840
      3 O           1.1369   -1.7345   -0.0001 O.2     1  UNL1       -0.4988
      4 C          -1.5658   -0.9978    0.0000 C.2     1  UNL1       -0.0845
      5 C          -3.0310   -0.7577    0.0000 C.3     1  UNL1       -0.3274
      6 H          -3.4814   -1.2300    0.8761 H       1  UNL1        0.1461
      7 H          -3.2852    0.2999    0.0001 H       1  UNL1        0.1299
      8 H          -3.4814   -1.2299   -0.8761 H       1  UNL1        0.1461
      9 H          -1.2306   -2.0293    0.0000 H       1  UNL1        0.1658
     10 CL         -0.9133    1.6130   -0.0000 Cl      1  UNL1       -0.1190
     11 N           1.7855    0.4198    0.0000 N.am    1  UNL1       -0.3011
     12 C           3.1971    0.1071    0.0000 C.3     1  UNL1       -0.2521
     13 H           1.4967    1.3817    0.0001 H       1  UNL1        0.2608
     14 H           3.7582    1.0379    0.0000 H       1  UNL1        0.1485
     15 H           3.4672   -0.4712    0.8847 H       1  UNL1        0.1387
     16 H           3.4672   -0.4712   -0.8847 H       1  UNL1        0.1387
@<TRIPOS>BOND
     1    16    12    1
     2     8     5    1
     3     3     2    2
     4    10     1    1
     5     2     1    1
     6     2    11   am
     7     1     4    2
     8     4     9    1
     9     4     5    1
    10    12    14    1
    11    12    11    1
    12    12    15    1
    13     5     7    1
    14     5     6    1
    15    11    13    1
