@<TRIPOS>MOLECULE
GS-426-1.out
 24 24 0 0 0
SMALL
MULLIKEN_CHARGES
****
Gaussian 16 # wB97XD def2tzvp, opt=(calcfc, maxcycles=70, maxstep=1), freq=noraman
@<TRIPOS>ATOM
      1 C          -0.9304    0.0714    0.0784 C.2     1  UNL1       -0.0607
      2 C          -0.6756    1.5441    0.2342 C.2     1  UNL1        0.2340
      3 O          -1.3679    2.3495   -0.3454 O.2     1  UNL1       -0.3747
      4 C          -0.0061   -0.8919   -0.0067 C.2     1  UNL1        0.0031
      5 C          -0.3104   -2.3534   -0.1289 C.3     1  UNL1       -0.3568
      6 H           0.4420   -2.9353    0.4037 H       1  UNL1        0.1471
      7 H          -1.2966   -2.6085    0.2500 H       1  UNL1        0.1415
      8 H          -0.2565   -2.6494   -1.1802 H       1  UNL1        0.1592
      9 C           1.4351   -0.5339   -0.0831 C.ar    1  UNL1        0.2094
     10 C           2.3381   -1.0189    0.8618 C.ar    1  UNL1       -0.2097
     11 C           3.6767   -0.6733    0.7915 C.ar    1  UNL1       -0.1434
     12 C           4.1350    0.1397   -0.2375 C.ar    1  UNL1       -0.1345
     13 C           3.2479    0.6039   -1.1961 C.ar    1  UNL1       -0.1294
     14 C           1.9040    0.2697   -1.1185 C.ar    1  UNL1       -0.2659
     15 H           1.9863   -1.6477    1.6706 H       1  UNL1        0.1591
     16 H           4.3657   -1.0393    1.5419 H       1  UNL1        0.1476
     17 H           5.1831    0.4047   -0.2932 H       1  UNL1        0.1490
     18 H           3.5997    1.2285   -2.0070 H       1  UNL1        0.1479
     19 H           1.2116    0.6314   -1.8687 H       1  UNL1        0.1636
     20 BR         -2.7875   -0.3326   -0.0649 Br      1  UNL1       -0.0820
     21 C           0.4002    2.0101    1.1855 C.3     1  UNL1       -0.3756
     22 H          -0.0189    2.8266    1.7734 H       1  UNL1        0.1601
     23 H           0.7602    1.2241    1.8434 H       1  UNL1        0.1504
     24 H           1.2423    2.4050    0.6163 H       1  UNL1        0.1606
@<TRIPOS>BOND
     1    18    13    1
     2    19    14    1
     3    13    14   ar
     4    13    12   ar
     5     8     5    1
     6    14     9   ar
     7     3     2    2
     8    17    12    1
     9    12    11   ar
    10     5     4    1
    11     5     7    1
    12     5     6    1
    13     9     4    1
    14     9    10   ar
    15    20     1    1
    16     4     1    2
    17     1     2    1
    18     2    21    1
    19    24    21    1
    20    11    10   ar
    21    11    16    1
    22    10    15    1
    23    21    22    1
    24    21    23    1
