@<TRIPOS>MOLECULE
GS-472-0.out
 21 21 0 0 0
SMALL
MULLIKEN_CHARGES
****
Gaussian 16 # wB97XD def2tzvp, opt=(calcfc, maxcycles=70, maxstep=10), freq=norama
@<TRIPOS>ATOM
      1 C           1.2619    0.5720    0.0680 C.2     1  UNL1       -0.0968
      2 C          -0.0365    1.2538   -0.2492 C.2     1  UNL1        0.2976
      3 O          -0.0224    2.3871   -0.6795 O.2     1  UNL1       -0.3726
      4 C           2.2190    1.1973    0.7416 C.2     1  UNL1       -0.0879
      5 C           3.5563    0.6928    1.1452 C.3     1  UNL1       -0.3328
      6 H           4.3325    1.3176    0.6966 H       1  UNL1        0.1481
      7 H           3.6721    0.7750    2.2278 H       1  UNL1        0.1475
      8 H           3.7220   -0.3404    0.8477 H       1  UNL1        0.1339
      9 H           1.9768    2.2133    1.0405 H       1  UNL1        0.1686
     10 BR          1.4598   -1.1997   -0.5993 Br      1  UNL1       -0.0736
     11 C          -1.3197    0.5429    0.0068 C.ar    1  UNL1        0.1155
     12 C          -2.4341    0.8706   -0.7615 C.ar    1  UNL1       -0.2064
     13 C          -3.6528    0.2638   -0.5122 C.ar    1  UNL1       -0.1300
     14 C          -3.7702   -0.6566    0.5213 C.ar    1  UNL1       -0.1285
     15 C          -2.6666   -0.9742    1.3008 C.ar    1  UNL1       -0.1421
     16 C          -1.4409   -0.3848    1.0383 C.ar    1  UNL1       -0.2183
     17 H          -2.3333    1.5976   -1.5569 H       1  UNL1        0.1501
     18 H          -4.5134    0.5099   -1.1206 H       1  UNL1        0.1501
     19 H          -4.7250   -1.1265    0.7204 H       1  UNL1        0.1520
     20 H          -2.7604   -1.6839    2.1123 H       1  UNL1        0.1505
     21 H          -0.5823   -0.6341    1.6489 H       1  UNL1        0.1751
@<TRIPOS>BOND
     1    17    12    1
     2    18    13    1
     3    12    13   ar
     4    12    11   ar
     5     3     2    2
     6    10     1    1
     7    13    14   ar
     8     2    11    1
     9     2     1    1
    10    11    16   ar
    11     1     4    2
    12    14    19    1
    13    14    15   ar
    14     6     5    1
    15     4     9    1
    16     4     5    1
    17     8     5    1
    18    16    15   ar
    19    16    21    1
    20     5     7    1
    21    15    20    1
