@<TRIPOS>MOLECULE
GS-490-1.out
 17 16 0 0 0
SMALL
MULLIKEN_CHARGES
****
Gaussian 16 # wB97XD def2tzvp, opt=(calcfc, maxcycles=70, maxstep=1), freq=noraman
@<TRIPOS>ATOM
      1 C          -0.0409   -0.6446   -0.0758 C.2     1  UNL1       -0.3313
      2 C          -1.3221    0.0818   -0.0452 C.2     1  UNL1        0.3310
      3 O          -1.4291    1.2909   -0.1605 O.2     1  UNL1       -0.4381
      4 C           1.1929   -0.1229    0.0033 C.2     1  UNL1        0.1036
      5 C           2.3908   -1.0212   -0.0410 C.3     1  UNL1       -0.3492
      6 H           3.0730   -0.6924   -0.8296 H       1  UNL1        0.1402
      7 H           2.9442   -0.9506    0.8993 H       1  UNL1        0.1449
      8 H           2.1238   -2.0624   -0.2153 H       1  UNL1        0.1303
      9 C           1.5083    1.3344    0.1361 C.3     1  UNL1       -0.3518
     10 H           2.4061    1.4684    0.7419 H       1  UNL1        0.1311
     11 H           1.7261    1.7472   -0.8537 H       1  UNL1        0.1483
     12 H           0.6843    1.9038    0.5545 H       1  UNL1        0.1417
     13 H          -0.1316   -1.7238   -0.1441 H       1  UNL1        0.1465
     14 C          -2.5430   -0.7882    0.1275 C.3     1  UNL1       -0.3767
     15 H          -2.4549   -1.3823    1.0396 H       1  UNL1        0.1494
     16 H          -3.4421   -0.1778    0.1673 H       1  UNL1        0.1321
     17 H          -2.6127   -1.4920   -0.7053 H       1  UNL1        0.1480
@<TRIPOS>BOND
     1    11     9    1
     2     6     5    1
     3    17    14    1
     4     8     5    1
     5     3     2    2
     6    13     1    1
     7     1     2    1
     8     1     4    2
     9     2    14    1
    10     5     4    1
    11     5     7    1
    12     4     9    1
    13    14    16    1
    14    14    15    1
    15     9    12    1
    16     9    10    1
