@<TRIPOS>MOLECULE
GS-594-0.out
 14 13 0 0 0
SMALL
MULLIKEN_CHARGES
****
Gaussian 16 # wB97XD def2tzvp, opt=(calcfc, maxcycles=70, maxstep=10), freq=norama
@<TRIPOS>ATOM
      1 C           0.2938    0.2682   -0.0871 C.2     1  UNL1       -0.0523
      2 C           1.0690   -1.0217   -0.1229 C.2     1  UNL1        0.2739
      3 O           0.6679   -1.9603   -0.7669 O.2     1  UNL1       -0.3580
      4 C          -1.0301    0.3997    0.0201 C.2     1  UNL1        0.0743
      5 C          -1.8067    1.6688    0.0842 C.3     1  UNL1       -0.3301
      6 H          -1.1612    2.5395    0.0173 H       1  UNL1        0.1421
      7 H          -2.5271    1.6951   -0.7352 H       1  UNL1        0.1558
      8 H          -2.3685    1.7092    1.0187 H       1  UNL1        0.1555
      9 CL         -2.0363   -1.0103    0.1539 Cl      1  UNL1       -0.0679
     10 CL          1.2971    1.6922   -0.1551 Cl      1  UNL1       -0.0831
     11 C           2.3503   -1.0792    0.6604 C.3     1  UNL1       -0.3782
     12 H           2.2507   -0.5773    1.6229 H       1  UNL1        0.1586
     13 H           2.6306   -2.1206    0.7987 H       1  UNL1        0.1458
     14 H           3.1409   -0.5703    0.1054 H       1  UNL1        0.1635
@<TRIPOS>BOND
     1     3     2    2
     2     7     5    1
     3    10     1    1
     4     2     1    1
     5     2    11    1
     6     1     4    2
     7     6     5    1
     8     4     5    1
     9     4     9    1
    10     5     8    1
    11    14    11    1
    12    11    13    1
    13    11    12    1
