@<TRIPOS>MOLECULE
GS-573-1.out
 16 15 0 0 0
SMALL
MULLIKEN_CHARGES
****
Gaussian 16 # wB97XD def2tzvp, opt=(calcfc, maxcycles=70, maxstep=1), freq=noraman
@<TRIPOS>ATOM
      1 C          -0.3234    1.0748    0.2032 C.2     1  UNL1       -0.2907
      2 C           1.1040    0.7276   -0.0501 C.2     1  UNL1        0.4074
      3 O           1.8152    1.5211   -0.6597 O.2     1  UNL1       -0.5045
      4 C          -1.4221    0.3373    0.1001 C.2     1  UNL1        0.0884
      5 C          -2.8098    0.8460    0.2989 C.3     1  UNL1       -0.3334
      6 H          -2.7917    1.9038    0.5560 H       1  UNL1        0.1422
      7 H          -3.3981    0.7105   -0.6103 H       1  UNL1        0.1491
      8 H          -3.3051    0.2933    1.0989 H       1  UNL1        0.1491
      9 CL         -1.3715   -1.3594   -0.3237 Cl      1  UNL1       -0.1068
     10 H          -0.4688    2.1267    0.4196 H       1  UNL1        0.1714
     11 N           1.5709   -0.4286    0.4396 N.am    1  UNL1       -0.3110
     12 C           2.9402   -0.8475    0.2377 C.3     1  UNL1       -0.2502
     13 H           0.9438   -1.0387    0.9323 H       1  UNL1        0.2681
     14 H           3.0896   -1.7987    0.7421 H       1  UNL1        0.1476
     15 H           3.1600   -0.9698   -0.8241 H       1  UNL1        0.1370
     16 H           3.6342   -0.1139    0.6499 H       1  UNL1        0.1363
@<TRIPOS>BOND
     1    15    12    1
     2     3     2    2
     3     7     5    1
     4     9     4    1
     5     2     1    1
     6     2    11   am
     7     4     1    2
     8     4     5    1
     9     1    10    1
    10    12    11    1
    11    12    16    1
    12    12    14    1
    13     5     6    1
    14     5     8    1
    15    11    13    1
