@<TRIPOS>MOLECULE
GS-549-0.out
 16 15 0 0 0
SMALL
MULLIKEN_CHARGES
****
Gaussian 16 # wB97XD def2tzvp, opt=(calcfc, maxcycles=70, maxstep=10), freq=norama
@<TRIPOS>ATOM
      1 C           0.4731   -0.1612    0.0545 C.2     1  UNL1       -0.0980
      2 C           0.2536    1.2995    0.3603 C.2     1  UNL1        0.3745
      3 O           0.3304    1.7208    1.5035 O.2     1  UNL1       -0.4621
      4 C          -0.4733   -1.0776   -0.0864 C.2     1  UNL1       -0.0005
      5 C          -0.3297   -2.5381   -0.3339 C.3     1  UNL1       -0.3468
      6 H           0.7175   -2.8177   -0.4227 H       1  UNL1        0.1455
      7 H          -0.7788   -3.1021    0.4851 H       1  UNL1        0.1569
      8 H          -0.8495   -2.8142   -1.2524 H       1  UNL1        0.1565
      9 BR         -2.2871   -0.5012    0.0603 Br      1  UNL1       -0.0582
     10 BR          2.3156   -0.6055   -0.0312 Br      1  UNL1       -0.0386
     11 N           0.0103    2.0651   -0.7077 N.am    1  UNL1       -0.2987
     12 C          -0.2331    3.4872   -0.5928 C.3     1  UNL1       -0.2527
     13 H          -0.0610    1.6258   -1.6088 H       1  UNL1        0.2864
     14 H          -0.3308    3.9038   -1.5916 H       1  UNL1        0.1520
     15 H          -1.1493    3.6823   -0.0329 H       1  UNL1        0.1417
     16 H           0.5969    3.9755   -0.0821 H       1  UNL1        0.1421
@<TRIPOS>BOND
     1    13    11    1
     2    14    12    1
     3     8     5    1
     4    11    12    1
     5    11     2   am
     6    12    16    1
     7    12    15    1
     8     6     5    1
     9     5     4    1
    10     5     7    1
    11     4     1    2
    12     4     9    1
    13    10     1    1
    14     1     2    1
    15     2     3    2
