@<TRIPOS>MOLECULE
GS-554-0.out
 14 13 0 0 0
SMALL
MULLIKEN_CHARGES
****
Gaussian 16 # wB97XD def2tzvp, opt=(calcfc, maxcycles=70, maxstep=10), freq=norama
@<TRIPOS>ATOM
      1 C           0.8616    0.2583   -0.0522 C.2     1  UNL1        0.0416
      2 C           1.0983   -1.2339   -0.1780 C.2     1  UNL1        0.2253
      3 O           1.1741   -1.7378   -1.2694 O.2     1  UNL1       -0.3448
      4 C          -0.3133    0.8640    0.0198 C.2     1  UNL1       -0.0257
      5 C          -0.5971    2.3205    0.1281 C.3     1  UNL1       -0.3445
      6 H           0.3272    2.8939    0.1466 H       1  UNL1        0.1428
      7 H          -1.2005    2.6497   -0.7191 H       1  UNL1        0.1559
      8 H          -1.1603    2.5267    1.0395 H       1  UNL1        0.1562
      9 BR         -1.8644   -0.2431   -0.0140 Br      1  UNL1       -0.0571
     10 CL          2.3571    1.1422   -0.0162 Cl      1  UNL1       -0.0707
     11 C           1.2678   -1.9808    1.1076 C.3     1  UNL1       -0.3475
     12 H           0.3623   -1.8738    1.7087 H       1  UNL1        0.1608
     13 H           1.4699   -3.0315    0.9142 H       1  UNL1        0.1455
     14 H           2.0860   -1.5380    1.6797 H       1  UNL1        0.1623
@<TRIPOS>BOND
     1     3     2    2
     2     7     5    1
     3     2     1    1
     4     2    11    1
     5     1    10    1
     6     1     4    2
     7     9     4    1
     8     4     5    1
     9     5     6    1
    10     5     8    1
    11    13    11    1
    12    11    14    1
    13    11    12    1
