@<TRIPOS>MOLECULE
GS-560-0.out
 21 21 0 0 0
SMALL
MULLIKEN_CHARGES
****
Gaussian 16 # wB97XD def2tzvp, opt=(calcfc, maxcycles=70, maxstep=10), freq=norama
@<TRIPOS>ATOM
      1 C           0.9053    0.9845    0.1458 C.2     1  UNL1        0.0000
      2 C          -0.2956    0.6307    0.9974 C.2     1  UNL1        0.3681
      3 O          -0.2066    0.7247    2.1992 O.2     1  UNL1       -0.3584
      4 C           1.8313    0.1442   -0.2897 C.2     1  UNL1       -0.0321
      5 C           3.0536    0.4471   -1.0814 C.3     1  UNL1       -0.3553
      6 H           3.1273    1.5129   -1.2865 H       1  UNL1        0.1428
      7 H           3.9432    0.1291   -0.5359 H       1  UNL1        0.1585
      8 H           3.0309   -0.0952   -2.0279 H       1  UNL1        0.1581
      9 BR          1.5962   -1.6989    0.1298 Br      1  UNL1       -0.0546
     10 CL          0.9853    2.6894   -0.1775 Cl      1  UNL1       -0.0684
     11 C          -1.5442    0.2290    0.3061 C.ar    1  UNL1        0.0304
     12 C          -2.6677   -0.0774    1.0741 C.ar    1  UNL1       -0.2120
     13 C          -3.8456   -0.4554    0.4580 C.ar    1  UNL1       -0.1190
     14 C          -3.9107   -0.5283   -0.9289 C.ar    1  UNL1       -0.1187
     15 C          -2.7974   -0.2237   -1.6983 C.ar    1  UNL1       -0.1470
     16 C          -1.6149    0.1535   -1.0832 C.ar    1  UNL1       -0.1785
     17 H          -2.6022   -0.0156    2.1522 H       1  UNL1        0.1518
     18 H          -4.7159   -0.6942    1.0550 H       1  UNL1        0.1524
     19 H          -4.8341   -0.8243   -1.4103 H       1  UNL1        0.1545
     20 H          -2.8495   -0.2811   -2.7774 H       1  UNL1        0.1523
     21 H          -0.7468    0.3868   -1.6862 H       1  UNL1        0.1753
@<TRIPOS>BOND
     1    20    15    1
     2     8     5    1
     3    15    16   ar
     4    15    14   ar
     5    21    16    1
     6    19    14    1
     7     6     5    1
     8    16    11   ar
     9     5     7    1
    10     5     4    1
    11    14    13   ar
    12     4     9    1
    13     4     1    2
    14    10     1    1
    15     1     2    1
    16    11     2    1
    17    11    12   ar
    18    13    18    1
    19    13    12   ar
    20     2     3    2
    21    12    17    1
