@<TRIPOS>MOLECULE
GS-514-0.out
 17 16 0 0 0
SMALL
MULLIKEN_CHARGES
****
Gaussian 16 # wB97XD def2tzvp, opt=(calcfc, maxcycles=70, maxstep=10), freq=norama
@<TRIPOS>ATOM
      1 C          -0.0063    0.1412   -0.0539 C.2     1  UNL1       -0.0717
      2 C           1.2110   -0.7223   -0.0739 C.2     1  UNL1        0.2816
      3 O           1.1505   -1.8607   -0.4897 O.2     1  UNL1       -0.3972
      4 C          -1.2701   -0.2952    0.0482 C.2     1  UNL1        0.0720
      5 C          -2.4547    0.6190    0.0661 C.3     1  UNL1       -0.3621
      6 H          -3.2492    0.1906   -0.5480 H       1  UNL1        0.1482
      7 H          -2.8444    0.6841    1.0860 H       1  UNL1        0.1567
      8 H          -2.2333    1.6225   -0.2846 H       1  UNL1        0.1346
      9 C          -1.6284   -1.7463    0.1880 C.3     1  UNL1       -0.3484
     10 H          -2.5181   -1.8333    0.8135 H       1  UNL1        0.1391
     11 H          -1.8801   -2.1567   -0.7933 H       1  UNL1        0.1505
     12 H          -0.8286   -2.3511    0.6027 H       1  UNL1        0.1416
     13 CL          0.3349    1.8638   -0.1313 Cl      1  UNL1       -0.1234
     14 C           2.5085   -0.1523    0.4317 C.3     1  UNL1       -0.3692
     15 H           2.3675    0.3922    1.3656 H       1  UNL1        0.1530
     16 H           3.2178   -0.9650    0.5684 H       1  UNL1        0.1387
     17 H           2.9105    0.5545   -0.2969 H       1  UNL1        0.1560
@<TRIPOS>BOND
     1    11     9    1
     2     6     5    1
     3     3     2    2
     4    17    14    1
     5     8     5    1
     6    13     1    1
     7     2     1    1
     8     2    14    1
     9     1     4    2
    10     4     5    1
    11     4     9    1
    12     5     7    1
    13     9    12    1
    14     9    10    1
    15    14    16    1
    16    14    15    1
