@<TRIPOS>MOLECULE
GS-501-0.out
 22 21 0 0 0
SMALL
MULLIKEN_CHARGES
****
Gaussian 16 # wB97XD def2tzvp, opt=(calcfc, maxcycles=70, maxstep=10), freq=norama
@<TRIPOS>ATOM
      1 C           0.5718    0.5785   -0.0438 C.2     1  UNL1       -0.0722
      2 C          -0.8866    0.3775    0.2649 C.2     1  UNL1        0.3269
      3 O          -1.4191    0.8938    1.2436 O.2     1  UNL1       -0.4997
      4 C           1.4393   -0.4349    0.0329 C.2     1  UNL1        0.0075
      5 C           2.9108   -0.3048   -0.2429 C.3     1  UNL1       -0.3576
      6 H           3.2233   -1.0845   -0.9425 H       1  UNL1        0.1311
      7 H           3.1988    0.6563   -0.6600 H       1  UNL1        0.1170
      8 H           3.4807   -0.4634    0.6770 H       1  UNL1        0.1378
      9 C           1.0442   -1.8300    0.4393 C.3     1  UNL1       -0.3809
     10 H           1.1736   -2.5219   -0.3979 H       1  UNL1        0.1402
     11 H           1.7031   -2.1789    1.2387 H       1  UNL1        0.1322
     12 H           0.0169   -1.9076    0.7891 H       1  UNL1        0.1364
     13 C           0.8895    2.0131   -0.3646 C.3     1  UNL1       -0.3401
     14 H           0.5676    2.6554    0.4578 H       1  UNL1        0.1354
     15 H           1.9491    2.1857   -0.5321 H       1  UNL1        0.1153
     16 H           0.3463    2.3382   -1.2562 H       1  UNL1        0.1342
     17 N          -1.5793   -0.3535   -0.6239 N.am    1  UNL1       -0.3072
     18 C          -2.9873   -0.6406   -0.4646 C.3     1  UNL1       -0.2497
     19 H          -1.0809   -0.7565   -1.3969 H       1  UNL1        0.2779
     20 H          -3.5651    0.2823   -0.4011 H       1  UNL1        0.1344
     21 H          -3.3263   -1.2107   -1.3259 H       1  UNL1        0.1463
     22 H          -3.1702   -1.2234    0.4403 H       1  UNL1        0.1346
@<TRIPOS>BOND
     1    19    17    1
     2    21    18    1
     3    16    13    1
     4     6     5    1
     5     7     5    1
     6    17    18    1
     7    17     2   am
     8    15    13    1
     9    18    20    1
    10    18    22    1
    11    10     9    1
    12    13     1    1
    13    13    14    1
    14     5     4    1
    15     5     8    1
    16     1     4    2
    17     1     2    1
    18     4     9    1
    19     2     3    2
    20     9    12    1
    21     9    11    1
