@<TRIPOS>MOLECULE
GS-523-0.out
 23 23 0 0 0
SMALL
MULLIKEN_CHARGES
****
Gaussian 16 # wB97XD def2tzvp, opt=(calcfc, maxcycles=70, maxstep=10), freq=norama
@<TRIPOS>ATOM
      1 C          -0.0064    0.1929   -0.0140 C.2     1  UNL1       -0.0780
      2 C          -0.4172    1.6363    0.1551 C.2     1  UNL1        0.2778
      3 O          -0.5538    2.3761   -0.8062 O.2     1  UNL1       -0.4478
      4 C          -0.8887   -0.7883   -0.1661 C.2     1  UNL1        0.0310
      5 C          -0.6127   -2.2294   -0.4347 C.3     1  UNL1       -0.3856
      6 H           0.4493   -2.3929   -0.6068 H       1  UNL1        0.1553
      7 H          -0.9301   -2.8460    0.4083 H       1  UNL1        0.1562
      8 H          -1.1672   -2.5604   -1.3138 H       1  UNL1        0.1529
      9 BR         -2.7594   -0.3935   -0.0692 Br      1  UNL1       -0.0866
     10 C           1.4652   -0.0284   -0.0228 C.ar    1  UNL1        0.2026
     11 C           2.2708    0.6504   -0.9355 C.ar    1  UNL1       -0.2127
     12 C           3.6439    0.4616   -0.9333 C.ar    1  UNL1       -0.1514
     13 C           4.2296   -0.3990   -0.0153 C.ar    1  UNL1       -0.1355
     14 C           3.4351   -1.0686    0.9038 C.ar    1  UNL1       -0.1273
     15 C           2.0612   -0.8822    0.9024 C.ar    1  UNL1       -0.2532
     16 H           1.8160    1.3232   -1.6515 H       1  UNL1        0.1502
     17 H           4.2582    0.9880   -1.6527 H       1  UNL1        0.1457
     18 H           5.3022   -0.5444   -0.0143 H       1  UNL1        0.1477
     19 H           3.8850   -1.7358    1.6279 H       1  UNL1        0.1463
     20 H           1.4437   -1.3981    1.6272 H       1  UNL1        0.1627
     21 N          -0.5525    2.0389    1.4274 N.am    1  UNL1       -0.4287
     22 H          -0.8069    2.9921    1.6241 H       1  UNL1        0.2816
     23 H          -0.4580    1.3950    2.1920 H       1  UNL1        0.2970
@<TRIPOS>BOND
     1    17    12    1
     2    16    11    1
     3     8     5    1
     4    11    12   ar
     5    11    10   ar
     6    12    13   ar
     7     3     2    2
     8     6     5    1
     9     5     4    1
    10     5     7    1
    11     4     9    1
    12     4     1    2
    13    10     1    1
    14    10    15   ar
    15    13    18    1
    16    13    14   ar
    17     1     2    1
    18     2    21   am
    19    15    14   ar
    20    15    20    1
    21    14    19    1
    22    21    22    1
    23    21    23    1
