@<TRIPOS>MOLECULE
GS-582-1.out
 22 21 0 0 0
SMALL
MULLIKEN_CHARGES
****
Gaussian 16 # wb97xd def2tzvp opt=(calcfc, maxcycles=100, maxstep=10) freq=noraman
@<TRIPOS>ATOM
      1 C          -0.5154    0.8471   -0.1062 C.2     1  UNL1       -0.1545
      2 C           0.8328    0.3772   -0.5918 C.2     1  UNL1        0.3234
      3 O           1.0911    0.4676   -1.7886 O.2     1  UNL1       -0.4976
      4 C          -1.5368    0.0097    0.0182 C.2     1  UNL1        0.0653
      5 C          -2.9508    0.3015    0.3906 C.3     1  UNL1       -0.3461
      6 H          -3.1087    1.3632    0.5627 H       1  UNL1        0.1251
      7 H          -3.6257   -0.0246   -0.4027 H       1  UNL1        0.1463
      8 H          -3.2214   -0.2404    1.2986 H       1  UNL1        0.1466
      9 CL         -1.2620   -1.7068   -0.2685 Cl      1  UNL1       -0.1323
     10 C          -0.5817    2.3308    0.1117 C.3     1  UNL1       -0.3125
     11 H          -0.2762    2.8506   -0.7987 H       1  UNL1        0.1468
     12 H          -1.5740    2.6753    0.3885 H       1  UNL1        0.1254
     13 H           0.1149    2.6238    0.9015 H       1  UNL1        0.1462
     14 N           1.7148   -0.0587    0.3260 N.am    1  UNL1       -0.1028
     15 C           3.0316   -0.5031   -0.0830 C.3     1  UNL1       -0.2766
     16 C           1.4261   -0.1972    1.7386 C.3     1  UNL1       -0.2933
     17 H           3.1609   -0.3208   -1.1448 H       1  UNL1        0.1497
     18 H           3.7959    0.0404    0.4759 H       1  UNL1        0.1405
     19 H           3.1475   -1.5710    0.1180 H       1  UNL1        0.1398
     20 H           0.4451    0.2038    1.9740 H       1  UNL1        0.1691
     21 H           1.4519   -1.2506    2.0280 H       1  UNL1        0.1449
     22 H           2.1761    0.3407    2.3217 H       1  UNL1        0.1467
@<TRIPOS>BOND
     1     3     2    2
     2    17    15    1
     3    11    10    1
     4     2     1    1
     5     2    14   am
     6     7     5    1
     7     9     4    1
     8     1     4    2
     9     1    10    1
    10    15    19    1
    11    15    14    1
    12    15    18    1
    13     4     5    1
    14    10    12    1
    15    10    13    1
    16    14    16    1
    17     5     6    1
    18     5     8    1
    19    16    20    1
    20    16    21    1
    21    16    22    1
