@<TRIPOS>MOLECULE
GS-572-0.out
 15 14 0 0 0
SMALL
MULLIKEN_CHARGES
****
Gaussian 16 # wB97XD def2tzvp, opt=(calcfc, maxcycles=70, maxstep=10), freq=norama
@<TRIPOS>ATOM
      1 C          -0.1057    0.8518   -0.0000 C.2     1  UNL1       -0.3246
      2 C           1.0851   -0.0158   -0.0000 C.2     1  UNL1        0.4595
      3 O           1.1161   -1.2220   -0.0000 O.2     1  UNL1       -0.4188
      4 C          -1.3874    0.4895    0.0000 C.2     1  UNL1        0.1294
      5 C          -2.5202    1.4587   -0.0000 C.3     1  UNL1       -0.3419
      6 H          -2.1494    2.4819   -0.0000 H       1  UNL1        0.1444
      7 H          -3.1459    1.3044   -0.8806 H       1  UNL1        0.1530
      8 H          -3.1459    1.3044    0.8806 H       1  UNL1        0.1530
      9 CL         -1.9041   -1.1655    0.0000 Cl      1  UNL1       -0.0706
     10 H           0.0989    1.9142   -0.0000 H       1  UNL1        0.1676
     11 O           2.1876    0.7425    0.0000 O.3     1  UNL1       -0.2806
     12 C           3.4337    0.0463    0.0000 C.3     1  UNL1       -0.1951
     13 H           4.2009    0.8150    0.0000 H       1  UNL1        0.1475
     14 H           3.5238   -0.5764    0.8896 H       1  UNL1        0.1386
     15 H           3.5238   -0.5763   -0.8895 H       1  UNL1        0.1386
@<TRIPOS>BOND
     1    15    12    1
     2     7     5    1
     3     3     2    2
     4     6     5    1
     5    10     1    1
     6     2     1    1
     7     2    11    1
     8     1     4    2
     9     5     4    1
    10     5     8    1
    11     4     9    1
    12    11    12    1
    13    12    13    1
    14    12    14    1
