@<TRIPOS>MOLECULE
GS-597-0.out
 16 15 0 0 0
SMALL
MULLIKEN_CHARGES
****
Gaussian 16 # wB97XD def2tzvp, opt=(calcfc, maxcycles=70, maxstep=10), freq=norama
@<TRIPOS>ATOM
      1 C           0.3685    0.5126    0.0300 C.2     1  UNL1       -0.0449
      2 C          -1.0868    0.2600    0.3396 C.2     1  UNL1        0.3595
      3 O          -1.5375    0.4835    1.4521 O.2     1  UNL1       -0.4649
      4 C           1.3153   -0.4141   -0.0513 C.2     1  UNL1        0.0337
      5 C           2.7709   -0.2232   -0.2920 C.3     1  UNL1       -0.3408
      6 H           3.0094    0.8279   -0.4331 H       1  UNL1        0.1403
      7 H           3.3413   -0.6069    0.5554 H       1  UNL1        0.1549
      8 H           3.0762   -0.7799   -1.1792 H       1  UNL1        0.1545
      9 CL          0.8439   -2.0803    0.1696 Cl      1  UNL1       -0.0855
     10 CL          0.7348    2.2013   -0.1320 Cl      1  UNL1       -0.0757
     11 N          -1.8149   -0.1800   -0.6905 N.am    1  UNL1       -0.3023
     12 C          -3.2248   -0.4812   -0.5601 C.3     1  UNL1       -0.2513
     13 H          -1.3548   -0.3535   -1.5668 H       1  UNL1        0.2871
     14 H          -3.6091   -0.7692   -1.5348 H       1  UNL1        0.1519
     15 H          -3.3846   -1.3000    0.1432 H       1  UNL1        0.1416
     16 H          -3.7708    0.3931   -0.2051 H       1  UNL1        0.1419
@<TRIPOS>BOND
     1    13    11    1
     2    14    12    1
     3     8     5    1
     4    11    12    1
     5    11     2   am
     6    12    16    1
     7    12    15    1
     8     6     5    1
     9     5     4    1
    10     5     7    1
    11    10     1    1
    12     4     1    2
    13     4     9    1
    14     1     2    1
    15     2     3    2
