@<TRIPOS>MOLECULE
GS-568-0.out
 31 32 0 0 0
SMALL
MULLIKEN_CHARGES
****
Gaussian 16 # wB97XD def2tzvp, opt=(calcfc, maxcycles=70, maxstep=10), freq=norama
@<TRIPOS>ATOM
      1 C           0.5828    0.7724    0.2796 C.2     1  UNL1       -0.0547
      2 C          -0.6224    0.3082    1.0620 C.2     1  UNL1        0.3076
      3 O          -0.6666    0.4841    2.2601 O.2     1  UNL1       -0.3771
      4 C           0.6637    2.0038   -0.2122 C.2     1  UNL1        0.0847
      5 C           1.8122    2.6436   -0.9142 C.3     1  UNL1       -0.3887
      6 H           2.6929    2.0064   -0.8767 H       1  UNL1        0.1562
      7 H           1.5632    2.8389   -1.9590 H       1  UNL1        0.1565
      8 H           2.0471    3.5997   -0.4446 H       1  UNL1        0.1520
      9 CL         -0.7198    3.0703   -0.0411 Cl      1  UNL1       -0.1091
     10 C           1.6489   -0.2517    0.1288 C.ar    1  UNL1        0.1760
     11 C           2.1424   -0.9184    1.2493 C.ar    1  UNL1       -0.2299
     12 C           3.1212   -1.8903    1.1134 C.ar    1  UNL1       -0.1505
     13 C           3.6119   -2.2165   -0.1428 C.ar    1  UNL1       -0.1322
     14 C           3.1163   -1.5676   -1.2645 C.ar    1  UNL1       -0.1248
     15 C           2.1382   -0.5950   -1.1304 C.ar    1  UNL1       -0.2767
     16 H           1.7640   -0.6671    2.2321 H       1  UNL1        0.1522
     17 H           3.5017   -2.3939    1.9929 H       1  UNL1        0.1459
     18 H           4.3745   -2.9775   -0.2479 H       1  UNL1        0.1479
     19 H           3.4873   -1.8224   -2.2490 H       1  UNL1        0.1462
     20 H           1.7452   -0.1014   -2.0104 H       1  UNL1        0.1771
     21 C          -1.6928   -0.4178    0.3285 C.ar    1  UNL1        0.0497
     22 C          -1.6646   -0.5433   -1.0583 C.ar    1  UNL1       -0.1567
     23 C          -2.6778   -1.2213   -1.7169 C.ar    1  UNL1       -0.1663
     24 C          -3.7214   -1.7787   -0.9927 C.ar    1  UNL1       -0.1153
     25 C          -3.7552   -1.6572    0.3918 C.ar    1  UNL1       -0.1230
     26 C          -2.7461   -0.9789    1.0498 C.ar    1  UNL1       -0.2194
     27 H          -0.8540   -0.1049   -1.6257 H       1  UNL1        0.1723
     28 H          -2.6529   -1.3143   -2.7947 H       1  UNL1        0.1486
     29 H          -4.5122   -2.3097   -1.5072 H       1  UNL1        0.1527
     30 H          -4.5704   -2.0934    0.9543 H       1  UNL1        0.1504
     31 H          -2.7598   -0.8767    2.1268 H       1  UNL1        0.1484
@<TRIPOS>BOND
     1    28    23    1
     2    19    14    1
     3    20    15    1
     4     7     5    1
     5    23    22   ar
     6    23    24   ar
     7    27    22    1
     8    29    24    1
     9    14    15   ar
    10    14    13   ar
    11    15    10   ar
    12    22    21   ar
    13    24    25   ar
    14     5     6    1
    15     5     8    1
    16     5     4    1
    17    18    13    1
    18     4     9    1
    19     4     1    2
    20    13    12   ar
    21    10     1    1
    22    10    11   ar
    23     1     2    1
    24    21    26   ar
    25    21     2    1
    26    25    30    1
    27    25    26   ar
    28    26    31    1
    29     2     3    2
    30    12    11   ar
    31    12    17    1
    32    11    16    1
