@<TRIPOS>MOLECULE
GS-588-0.out
 15 14 0 0 0
SMALL
MULLIKEN_CHARGES
****
Gaussian 16 # wB97XD def2tzvp, opt=(calcfc, maxcycles=70, maxstep=10), freq=norama
@<TRIPOS>ATOM
      1 C          -0.2255    0.1102    0.0729 C.2     1  UNL1       -0.0888
      2 C           1.0419   -0.6407    0.3576 C.2     1  UNL1        0.4071
      3 O           1.3817   -0.9700    1.4630 O.2     1  UNL1       -0.3880
      4 C          -0.3044    1.4278   -0.0496 C.2     1  UNL1        0.0621
      5 C          -1.5058    2.2711   -0.2858 C.3     1  UNL1       -0.3432
      6 H          -2.4040    1.6633   -0.3600 H       1  UNL1        0.1455
      7 H          -1.6243    2.9838    0.5316 H       1  UNL1        0.1562
      8 H          -1.3828    2.8388   -1.2093 H       1  UNL1        0.1569
      9 CL          1.1843    2.3300    0.0868 Cl      1  UNL1       -0.0806
     10 BR         -1.7339   -1.0217   -0.0369 Br      1  UNL1       -0.0205
     11 O           1.7025   -0.9116   -0.7545 O.3     1  UNL1       -0.2530
     12 C           2.9288   -1.6408   -0.6057 C.3     1  UNL1       -0.2014
     13 H           3.3146   -1.7697   -1.6117 H       1  UNL1        0.1536
     14 H           3.6305   -1.0725    0.0028 H       1  UNL1        0.1469
     15 H           2.7367   -2.6073   -0.1426 H       1  UNL1        0.1471
@<TRIPOS>BOND
     1    13    12    1
     2     8     5    1
     3    11    12    1
     4    11     2    1
     5    12    15    1
     6    12    14    1
     7     6     5    1
     8     5     4    1
     9     5     7    1
    10     4     1    2
    11     4     9    1
    12    10     1    1
    13     1     2    1
    14     2     3    2
