@<TRIPOS>MOLECULE
GS-524-0.out
 25 25 0 0 0
SMALL
MULLIKEN_CHARGES
****
Gaussian 16 # wB97XD def2tzvp, opt=(calcfc, maxcycles=70, maxstep=10), freq=norama
@<TRIPOS>ATOM
      1 C           0.0580   -0.0601    0.1195 C.2     1  UNL1       -0.0081
      2 C          -0.4485    1.3457    0.2623 C.2     1  UNL1        0.3732
      3 O          -0.6515    1.8862    1.3195 O.2     1  UNL1       -0.3969
      4 C          -0.7664   -1.1002    0.0645 C.2     1  UNL1        0.0162
      5 C          -0.4062   -2.5458    0.0088 C.3     1  UNL1       -0.3898
      6 H           0.6655   -2.6814    0.1407 H       1  UNL1        0.1569
      7 H          -0.9302   -3.0929    0.7935 H       1  UNL1        0.1543
      8 H          -0.6993   -2.9784   -0.9495 H       1  UNL1        0.1589
      9 BR         -2.6531   -0.7906    0.0663 Br      1  UNL1       -0.0789
     10 C           1.5399   -0.1745    0.0622 C.ar    1  UNL1        0.1634
     11 C           2.1641   -0.7899   -1.0202 C.ar    1  UNL1       -0.2598
     12 C           3.5465   -0.8771   -1.0761 C.ar    1  UNL1       -0.1327
     13 C           4.3200   -0.3437   -0.0555 C.ar    1  UNL1       -0.1284
     14 C           3.7052    0.2816    1.0202 C.ar    1  UNL1       -0.1570
     15 C           2.3233    0.3704    1.0780 C.ar    1  UNL1       -0.2076
     16 H           1.5623   -1.1953   -1.8238 H       1  UNL1        0.1647
     17 H           4.0194   -1.3587   -1.9224 H       1  UNL1        0.1468
     18 H           5.3995   -0.4111   -0.1001 H       1  UNL1        0.1484
     19 H           4.3032    0.7012    1.8190 H       1  UNL1        0.1465
     20 H           1.8471    0.8582    1.9194 H       1  UNL1        0.1539
     21 O          -0.5874    1.9323   -0.9182 O.3     1  UNL1       -0.2585
     22 C          -1.0321    3.2942   -0.9060 C.3     1  UNL1       -0.2055
     23 H          -1.0786    3.5961   -1.9476 H       1  UNL1        0.1518
     24 H          -2.0165    3.3640   -0.4452 H       1  UNL1        0.1440
     25 H          -0.3254    3.9169   -0.3595 H       1  UNL1        0.1440
@<TRIPOS>BOND
     1    23    22    1
     2    17    12    1
     3    16    11    1
     4    12    11   ar
     5    12    13   ar
     6    11    10   ar
     7     8     5    1
     8    21    22    1
     9    21     2    1
    10    22    24    1
    11    22    25    1
    12    18    13    1
    13    13    14   ar
    14     5     4    1
    15     5     6    1
    16     5     7    1
    17    10     1    1
    18    10    15   ar
    19     4     9    1
    20     4     1    2
    21     1     2    1
    22     2     3    2
    23    14    15   ar
    24    14    19    1
    25    15    20    1
