@<TRIPOS>MOLECULE
GS-569-0.out
 11 10 0 0 0
SMALL
MULLIKEN_CHARGES
****
Gaussian 16 # wB97XD def2tzvp, opt=(calcfc, maxcycles=70, maxstep=10), freq=norama
@<TRIPOS>ATOM
      1 C           0.6784    0.7233   -0.0000 C.2     1  UNL1       -0.2336
      2 C           1.7636   -0.2531    0.0000 C.2     1  UNL1        0.1833
      3 O           2.9333    0.0647   -0.0000 O.2     1  UNL1       -0.3848
      4 C          -0.6269    0.4446   -0.0000 C.2     1  UNL1        0.1142
      5 C          -1.7142    1.4593    0.0000 C.3     1  UNL1       -0.3322
      6 H          -1.2965    2.4643    0.0000 H       1  UNL1        0.1470
      7 H          -2.3464    1.3317   -0.8804 H       1  UNL1        0.1564
      8 H          -2.3464    1.3317    0.8804 H       1  UNL1        0.1564
      9 CL         -1.2076   -1.1965   -0.0000 Cl      1  UNL1       -0.0780
     10 H           0.9726    1.7664   -0.0000 H       1  UNL1        0.1664
     11 H           1.4738   -1.3162    0.0000 H       1  UNL1        0.1049
@<TRIPOS>BOND
     1     7     5    1
     2     1     4    2
     3     1    10    1
     4     1     2    1
     5     4     9    1
     6     4     5    1
     7     3     2    2
     8     6     5    1
     9     2    11    1
    10     5     8    1
