@<TRIPOS>MOLECULE
GS-587-0.out
 13 12 0 0 0
SMALL
MULLIKEN_CHARGES
****
Gaussian 16 # wB97XD def2tzvp, opt=(calcfc, maxcycles=70, maxstep=10), freq=norama
@<TRIPOS>ATOM
      1 C          -0.0004    0.0578   -0.0109 C.2     1  UNL1       -0.0911
      2 C           0.2853    1.5366   -0.1191 C.2     1  UNL1        0.3013
      3 O           0.2222    2.1070   -1.1931 O.2     1  UNL1       -0.4399
      4 C           0.9166   -0.9002   -0.0012 C.2     1  UNL1        0.0671
      5 C           0.7269   -2.3750    0.0418 C.3     1  UNL1       -0.3343
      6 H          -0.3275   -2.6353    0.0872 H       1  UNL1        0.1445
      7 H           1.1680   -2.8310   -0.8458 H       1  UNL1        0.1548
      8 H           1.2332   -2.7877    0.9156 H       1  UNL1        0.1544
      9 CL          2.5934   -0.4098   -0.0624 Cl      1  UNL1       -0.0848
     10 BR         -1.8540   -0.3226    0.0211 Br      1  UNL1       -0.0321
     11 N           0.5681    2.1410    1.0420 N.am    1  UNL1       -0.4294
     12 H           0.7699    3.1267    1.0509 H       1  UNL1        0.2879
     13 H           0.6329    1.6255    1.9013 H       1  UNL1        0.3016
@<TRIPOS>BOND
     1     3     2    2
     2     7     5    1
     3     2     1    1
     4     2    11   am
     5     9     4    1
     6     1     4    2
     7     1    10    1
     8     4     5    1
     9     5     6    1
    10     5     8    1
    11    11    12    1
    12    11    13    1
