@<TRIPOS>MOLECULE
GS-599-0.out
 23 23 0 0 0
SMALL
MULLIKEN_CHARGES
****
Gaussian 16 # wB97XD def2tzvp, opt=(calcfc, maxcycles=70, maxstep=10), freq=norama
@<TRIPOS>ATOM
      1 C           1.8424    0.4690   -0.0527 C.2     1  UNL1       -0.0748
      2 C           0.4262    0.6263    0.4482 C.2     1  UNL1        0.4159
      3 O           0.2012    1.2102    1.4896 O.2     1  UNL1       -0.4393
      4 C           2.5606   -0.6470   -0.0038 C.2     1  UNL1        0.0344
      5 C           3.9742   -0.8466   -0.4209 C.3     1  UNL1       -0.3445
      6 H           4.3958    0.0694   -0.8266 H       1  UNL1        0.1412
      7 H           4.5719   -1.1660    0.4342 H       1  UNL1        0.1567
      8 H           4.0291   -1.6302   -1.1779 H       1  UNL1        0.1561
      9 CL          1.8010   -2.0774    0.6450 Cl      1  UNL1       -0.0801
     10 CL          2.5122    1.9584   -0.6362 Cl      1  UNL1       -0.0693
     11 N          -0.4988    0.0964   -0.3827 N.am    1  UNL1       -0.2678
     12 C          -1.8974    0.0369   -0.2327 C.ar    1  UNL1        0.3091
     13 C          -2.6059   -0.6639   -1.2085 C.ar    1  UNL1       -0.2942
     14 C          -3.9831   -0.7633   -1.1336 C.ar    1  UNL1       -0.0984
     15 C          -4.6728   -0.1675   -0.0861 C.ar    1  UNL1       -0.1814
     16 C          -3.9657    0.5279    0.8812 C.ar    1  UNL1       -0.1089
     17 C          -2.5832    0.6378    0.8195 C.ar    1  UNL1       -0.2901
     18 H          -0.1344   -0.3544   -1.2068 H       1  UNL1        0.2817
     19 H          -2.0737   -1.1329   -2.0277 H       1  UNL1        0.1479
     20 H          -4.5185   -1.3107   -1.8987 H       1  UNL1        0.1483
     21 H          -5.7504   -0.2456   -0.0267 H       1  UNL1        0.1454
     22 H          -4.4914    0.9979    1.7028 H       1  UNL1        0.1467
     23 H          -2.0424    1.1816    1.5764 H       1  UNL1        0.1654
@<TRIPOS>BOND
     1    19    13    1
     2    20    14    1
     3    13    14   ar
     4    13    12   ar
     5    18    11    1
     6     8     5    1
     7    14    15   ar
     8     6     5    1
     9    10     1    1
    10     5     4    1
    11     5     7    1
    12    11    12    1
    13    11     2   am
    14    12    17   ar
    15    15    21    1
    16    15    16   ar
    17     1     4    2
    18     1     2    1
    19     4     9    1
    20     2     3    2
    21    17    16   ar
    22    17    23    1
    23    16    22    1
