@<TRIPOS>MOLECULE
GS-574-0.out
 19 18 0 0 0
SMALL
MULLIKEN_CHARGES
****
Gaussian 16 # wB97XD def2tzvp, opt=(calcfc, maxcycles=70, maxstep=10), freq=norama
@<TRIPOS>ATOM
      1 C          -0.5034    0.9630    0.5630 C.2     1  UNL1       -0.2803
      2 C           0.8595    0.8638   -0.0484 C.2     1  UNL1        0.3413
      3 O           1.2101    1.7516   -0.8220 O.2     1  UNL1       -0.5009
      4 C          -1.5766    0.2769    0.2055 C.2     1  UNL1        0.0739
      5 C          -2.9596    0.4782    0.7218 C.3     1  UNL1       -0.3411
      6 H          -2.9716    1.2824    1.4561 H       1  UNL1        0.1417
      7 H          -3.6398    0.7317   -0.0931 H       1  UNL1        0.1477
      8 H          -3.3286   -0.4359    1.1902 H       1  UNL1        0.1475
      9 CL         -1.4416   -1.0025   -0.9839 Cl      1  UNL1       -0.1155
     10 H          -0.6295    1.7654    1.2811 H       1  UNL1        0.1785
     11 N           1.6477   -0.1701    0.2966 N.am    1  UNL1       -0.1136
     12 C           2.9578   -0.3158   -0.3054 C.3     1  UNL1       -0.2744
     13 C           1.2863   -1.2043    1.2444 C.3     1  UNL1       -0.2930
     14 H           3.1090    0.4709   -1.0372 H       1  UNL1        0.1492
     15 H           3.7334   -0.2525    0.4611 H       1  UNL1        0.1428
     16 H           3.0323   -1.2891   -0.7954 H       1  UNL1        0.1387
     17 H           0.3600   -0.9551    1.7522 H       1  UNL1        0.1661
     18 H           1.1664   -2.1636    0.7355 H       1  UNL1        0.1468
     19 H           2.0774   -1.3038    1.9902 H       1  UNL1        0.1446
@<TRIPOS>BOND
     1    14    12    1
     2     9     4    1
     3     3     2    2
     4    16    12    1
     5    12    11    1
     6    12    15    1
     7     7     5    1
     8     2    11   am
     9     2     1    1
    10     4     1    2
    11     4     5    1
    12    11    13    1
    13     1    10    1
    14     5     8    1
    15     5     6    1
    16    18    13    1
    17    13    17    1
    18    13    19    1
