@<TRIPOS>MOLECULE
GS-5-0.out
 43 45 0 0 0
SMALL
MULLIKEN_CHARGES
****
Gaussian 16 # wb97xd def2tzvp opt=(calcfc, maxcycles=100, maxstep=10) freq=noraman
@<TRIPOS>ATOM
      1 C           0.2340   -0.8659    0.0916 C.2     1  UNL1        0.1761
      2 C          -0.5495   -2.1526    0.1317 C.2     1  UNL1        0.1500
      3 O          -0.4459   -2.9345    1.0700 O.2     1  UNL1       -0.4700
      4 C          -0.3757    0.3292    0.0406 C.2     1  UNL1        0.2497
      5 C           0.3804    1.6022   -0.1066 C.ar    1  UNL1        0.0285
      6 C           0.1606    2.6529    0.7814 C.ar    1  UNL1       -0.2178
      7 C           0.8616    3.8416    0.6550 C.ar    1  UNL1       -0.1592
      8 C           1.7761    4.0043   -0.3766 C.ar    1  UNL1       -0.1218
      9 C           1.9838    2.9718   -1.2802 C.ar    1  UNL1       -0.1558
     10 C           1.2921    1.7784   -1.1444 C.ar    1  UNL1       -0.2216
     11 H          -0.5584    2.5329    1.5829 H       1  UNL1        0.1527
     12 H           0.6911    4.6441    1.3615 H       1  UNL1        0.1421
     13 H           2.3196    4.9349   -0.4797 H       1  UNL1        0.1452
     14 H           2.6861    3.0957   -2.0948 H       1  UNL1        0.1414
     15 H           1.4585    0.9732   -1.8489 H       1  UNL1        0.1555
     16 C          -1.8544    0.4703    0.1235 C.ar    1  UNL1       -0.0112
     17 C          -2.5357    1.2313   -0.8258 C.ar    1  UNL1       -0.2085
     18 C          -3.9141    1.3558   -0.7729 C.ar    1  UNL1       -0.1571
     19 C          -4.6314    0.7385    0.2433 C.ar    1  UNL1       -0.1227
     20 C          -3.9606   -0.0012    1.2058 C.ar    1  UNL1       -0.1539
     21 C          -2.5814   -0.1338    1.1470 C.ar    1  UNL1       -0.1984
     22 H          -1.9795    1.7202   -1.6165 H       1  UNL1        0.1552
     23 H          -4.4304    1.9382   -1.5255 H       1  UNL1        0.1430
     24 H          -5.7082    0.8407    0.2883 H       1  UNL1        0.1460
     25 H          -4.5109   -0.4737    2.0096 H       1  UNL1        0.1436
     26 H          -2.0613   -0.7055    1.9053 H       1  UNL1        0.1495
     27 C           1.7044   -1.0562    0.1662 C.ar    1  UNL1        0.0974
     28 C           2.4656   -0.4100    1.1374 C.ar    1  UNL1       -0.2242
     29 C           3.8369   -0.5995    1.1998 C.ar    1  UNL1       -0.1582
     30 C           4.4673   -1.4404    0.2932 C.ar    1  UNL1       -0.1235
     31 C           3.7156   -2.0998   -0.6691 C.ar    1  UNL1       -0.1662
     32 C           2.3431   -1.9145   -0.7264 C.ar    1  UNL1       -0.2163
     33 H           1.9773    0.2469    1.8460 H       1  UNL1        0.1566
     34 H           4.4148   -0.0906    1.9611 H       1  UNL1        0.1414
     35 H           5.5390   -1.5862    0.3405 H       1  UNL1        0.1450
     36 H           4.1987   -2.7611   -1.3772 H       1  UNL1        0.1424
     37 H           1.7618   -2.4325   -1.4805 H       1  UNL1        0.1438
     38 N          -1.3180   -2.3992   -0.9400 N.am    1  UNL1       -0.2573
     39 C          -2.2041   -3.5393   -1.0040 C.3     1  UNL1       -0.2631
     40 H          -1.3965   -1.6831   -1.6405 H       1  UNL1        0.2770
     41 H          -3.0168   -3.4480   -0.2791 H       1  UNL1        0.1369
     42 H          -2.6251   -3.5997   -2.0044 H       1  UNL1        0.1488
     43 H          -1.6551   -4.4564   -0.7930 H       1  UNL1        0.1389
@<TRIPOS>BOND
     1    14     9    1
     2    42    39    1
     3    15    10    1
     4    40    38    1
     5    22    17    1
     6    23    18    1
     7    37    32    1
     8    36    31    1
     9     9    10   ar
    10     9     8   ar
    11    10     5   ar
    12    39    38    1
    13    39    43    1
    14    39    41    1
    15    38     2   am
    16    17    18   ar
    17    17    16   ar
    18    18    19   ar
    19    32    31   ar
    20    32    27   ar
    21    31    30   ar
    22    13     8    1
    23     8     7   ar
    24     5     4    1
    25     5     6   ar
    26     4     1    2
    27     4    16    1
    28     1     2    1
    29     1    27    1
    30    16    21   ar
    31     2     3    2
    32    27    28   ar
    33    19    24    1
    34    19    20   ar
    35    30    35    1
    36    30    29   ar
    37     7     6   ar
    38     7    12    1
    39     6    11    1
    40    28    29   ar
    41    28    33    1
    42    21    20   ar
    43    21    26    1
    44    29    34    1
    45    20    25    1
