@<TRIPOS>MOLECULE
GS-527-1.out
 33 34 0 0 0
SMALL
MULLIKEN_CHARGES
****
Gaussian 16 # wB97XD def2tzvp, opt=(calcfc, maxcycles=70, maxstep=1), freq=noraman
@<TRIPOS>ATOM
      1 C           1.1653    0.2547   -0.1795 C.2     1  UNL1       -0.0959
      2 C          -0.2219   -0.0661   -0.6821 C.2     1  UNL1        0.3759
      3 O          -0.4627   -0.1362   -1.8732 O.2     1  UNL1       -0.4506
      4 C           1.5510    1.4968    0.0922 C.2     1  UNL1        0.0376
      5 C           2.9079    1.9611    0.5010 C.3     1  UNL1       -0.3863
      6 H           3.6251    1.1440    0.4544 H       1  UNL1        0.1559
      7 H           3.2441    2.7635   -0.1570 H       1  UNL1        0.1541
      8 H           2.8890    2.3536    1.5193 H       1  UNL1        0.1576
      9 BR          0.2847    2.9238   -0.0583 Br      1  UNL1       -0.0824
     10 C           2.0593   -0.9270   -0.0443 C.ar    1  UNL1        0.1651
     11 C           2.6391   -1.2405    1.1829 C.ar    1  UNL1       -0.2527
     12 C           3.4543   -2.3546    1.3106 C.ar    1  UNL1       -0.1335
     13 C           3.6939   -3.1712    0.2152 C.ar    1  UNL1       -0.1272
     14 C           3.1109   -2.8709   -1.0081 C.ar    1  UNL1       -0.1553
     15 C           2.2944   -1.7585   -1.1378 C.ar    1  UNL1       -0.2170
     16 H           2.4450   -0.6096    2.0414 H       1  UNL1        0.1633
     17 H           3.8993   -2.5864    2.2699 H       1  UNL1        0.1461
     18 H           4.3303   -4.0411    0.3147 H       1  UNL1        0.1479
     19 H           3.2933   -3.5047   -1.8666 H       1  UNL1        0.1456
     20 H           1.8399   -1.5265   -2.0926 H       1  UNL1        0.1518
     21 N          -1.1082   -0.3118    0.3132 N.am    1  UNL1       -0.2483
     22 C          -2.4717   -0.6476    0.2305 C.ar    1  UNL1        0.3035
     23 C          -3.1814   -0.7130    1.4298 C.ar    1  UNL1       -0.3005
     24 C          -4.5240   -1.0443    1.4302 C.ar    1  UNL1       -0.0988
     25 C          -5.1800   -1.3139    0.2364 C.ar    1  UNL1       -0.1831
     26 C          -4.4727   -1.2484   -0.9531 C.ar    1  UNL1       -0.1116
     27 C          -3.1243   -0.9189   -0.9696 C.ar    1  UNL1       -0.2860
     28 H          -0.7504   -0.1877    1.2468 H       1  UNL1        0.2772
     29 H          -2.6771   -0.5021    2.3656 H       1  UNL1        0.1470
     30 H          -5.0594   -1.0906    2.3699 H       1  UNL1        0.1473
     31 H          -6.2309   -1.5721    0.2360 H       1  UNL1        0.1445
     32 H          -4.9715   -1.4573   -1.8912 H       1  UNL1        0.1455
     33 H          -2.5828   -0.8712   -1.9001 H       1  UNL1        0.1635
@<TRIPOS>BOND
     1    20    15    1
     2    33    27    1
     3    32    26    1
     4     3     2    2
     5    19    14    1
     6    15    14   ar
     7    15    10   ar
     8    14    13   ar
     9    27    26   ar
    10    27    22   ar
    11    26    25   ar
    12     2     1    1
    13     2    21   am
    14     1    10    1
    15     1     4    2
    16     7     5    1
    17     9     4    1
    18    10    11   ar
    19     4     5    1
    20    13    18    1
    21    13    12   ar
    22    22    21    1
    23    22    23   ar
    24    31    25    1
    25    25    24   ar
    26    21    28    1
    27     6     5    1
    28     5     8    1
    29    11    12   ar
    30    11    16    1
    31    12    17    1
    32    23    24   ar
    33    23    29    1
    34    24    30    1
