@<TRIPOS>MOLECULE
GS-571-0.out
 13 12 0 0 0
SMALL
MULLIKEN_CHARGES
****
Gaussian 16 # wB97XD def2tzvp, opt=(calcfc, maxcycles=70, maxstep=10), freq=norama
@<TRIPOS>ATOM
      1 C           0.3310    0.9026    0.1202 C.2     1  UNL1       -0.2826
      2 C           1.6373    0.1965    0.0145 C.2     1  UNL1        0.3587
      3 O           2.6227    0.8393   -0.3314 O.2     1  UNL1       -0.4856
      4 C          -0.9282    0.4832    0.0450 C.2     1  UNL1        0.1144
      5 C          -2.1175    1.3808    0.1128 C.3     1  UNL1       -0.3311
      6 H          -2.7597    1.0940    0.9471 H       1  UNL1        0.1511
      7 H          -1.8049    2.4153    0.2431 H       1  UNL1        0.1437
      8 H          -2.7069    1.2985   -0.8020 H       1  UNL1        0.1510
      9 CL         -1.3643   -1.1949   -0.1683 Cl      1  UNL1       -0.1016
     10 H           0.4633    1.9736    0.2146 H       1  UNL1        0.1643
     11 N           1.7109   -1.1073    0.3283 N.am    1  UNL1       -0.4339
     12 H           2.6000   -1.5697    0.2503 H       1  UNL1        0.2812
     13 H           0.9080   -1.6407    0.6068 H       1  UNL1        0.2703
@<TRIPOS>BOND
     1     8     5    1
     2     3     2    2
     3     9     4    1
     4     2     1    1
     5     2    11   am
     6     4     5    1
     7     4     1    2
     8     5     7    1
     9     5     6    1
    10     1    10    1
    11    12    11    1
    12    11    13    1
