@<TRIPOS>MOLECULE
GS-567-0.out
 33 34 0 0 0
SMALL
MULLIKEN_CHARGES
****
Gaussian 16 # wB97XD def2tzvp, opt=(calcfc, maxcycles=70, maxstep=10), freq=norama
@<TRIPOS>ATOM
      1 C          -1.1821    0.6543   -0.1985 C.2     1  UNL1       -0.1173
      2 C           0.2027    0.3137   -0.6942 C.2     1  UNL1        0.3646
      3 O           0.4497    0.2393   -1.8839 O.2     1  UNL1       -0.4522
      4 C          -1.5387    1.9101    0.0535 C.2     1  UNL1        0.0884
      5 C          -2.8828    2.4188    0.4489 C.3     1  UNL1       -0.3882
      6 H          -2.8569    2.8185    1.4643 H       1  UNL1        0.1568
      7 H          -3.1839    3.2274   -0.2185 H       1  UNL1        0.1517
      8 H          -3.6265    1.6266    0.4027 H       1  UNL1        0.1547
      9 CL         -0.3413    3.1822   -0.1018 Cl      1  UNL1       -0.1041
     10 C          -2.0959   -0.5079   -0.0486 C.ar    1  UNL1        0.1821
     11 C          -2.3083   -1.3763   -1.1185 C.ar    1  UNL1       -0.2199
     12 C          -3.1440   -2.4726   -0.9757 C.ar    1  UNL1       -0.1531
     13 C          -3.7705   -2.7206    0.2377 C.ar    1  UNL1       -0.1292
     14 C          -3.5539   -1.8683    1.3104 C.ar    1  UNL1       -0.1324
     15 C          -2.7185   -0.7709    1.1698 C.ar    1  UNL1       -0.2548
     16 H          -1.8206   -1.1851   -2.0659 H       1  UNL1        0.1517
     17 H          -3.3075   -3.1347   -1.8165 H       1  UNL1        0.1455
     18 H          -4.4221   -3.5780    0.3476 H       1  UNL1        0.1478
     19 H          -4.0318   -2.0597    2.2627 H       1  UNL1        0.1460
     20 H          -2.5409   -0.1145    2.0125 H       1  UNL1        0.1653
     21 N           1.0817    0.0587    0.3056 N.am    1  UNL1       -0.2490
     22 C           2.4393   -0.3017    0.2303 C.ar    1  UNL1        0.3008
     23 C           3.1415   -0.3787    1.4335 C.ar    1  UNL1       -0.3000
     24 C           4.4777   -0.7345    1.4415 C.ar    1  UNL1       -0.0990
     25 C           5.1352   -1.0176    0.2516 C.ar    1  UNL1       -0.1836
     26 C           4.4355   -0.9408   -0.9418 C.ar    1  UNL1       -0.1110
     27 C           3.0934   -0.5865   -0.9659 C.ar    1  UNL1       -0.2856
     28 H           0.7205    0.1867    1.2374 H       1  UNL1        0.2768
     29 H           2.6361   -0.1573    2.3663 H       1  UNL1        0.1468
     30 H           5.0071   -0.7894    2.3841 H       1  UNL1        0.1472
     31 H           6.1811   -1.2951    0.2571 H       1  UNL1        0.1444
     32 H           4.9354   -1.1601   -1.8769 H       1  UNL1        0.1455
     33 H           2.5580   -0.5299   -1.8994 H       1  UNL1        0.1633
@<TRIPOS>BOND
     1    16    11    1
     2    33    27    1
     3     3     2    2
     4    32    26    1
     5    17    12    1
     6    11    12   ar
     7    11    10   ar
     8    12    13   ar
     9    27    26   ar
    10    27    22   ar
    11    26    25   ar
    12     2     1    1
    13     2    21   am
    14     7     5    1
    15     1    10    1
    16     1     4    2
    17     9     4    1
    18    10    15   ar
    19     4     5    1
    20    22    21    1
    21    22    23   ar
    22    13    18    1
    23    13    14   ar
    24    25    31    1
    25    25    24   ar
    26    21    28    1
    27     8     5    1
    28     5     6    1
    29    15    14   ar
    30    15    20    1
    31    14    19    1
    32    23    24   ar
    33    23    29    1
    34    24    30    1
