@<TRIPOS>MOLECULE
GS-57-1.out
 21 21 0 0 0
SMALL
MULLIKEN_CHARGES
****
Gaussian 16 # wB97XD def2tzvp, opt=(maxcycles=70, maxstep=1), freq=noraman, scrf=(
@<TRIPOS>ATOM
      1 C          -1.8023    0.0222    0.0247 C.2     1  UNL1        0.0864
      2 C          -3.0789   -0.6816   -0.1746 C.2     1  UNL1        0.1438
      3 O          -4.1730   -0.1863   -0.0185 O.2     1  UNL1       -0.3922
      4 C          -0.7037   -0.7135   -0.2135 C.2     1  UNL1       -0.1976
      5 C           0.7075   -0.3332   -0.1266 C.ar    1  UNL1        0.2001
      6 C           1.6422   -1.3304    0.1682 C.ar    1  UNL1       -0.2222
      7 C           2.9896   -1.0333    0.2767 C.ar    1  UNL1       -0.1485
      8 C           3.4326    0.2655    0.0662 C.ar    1  UNL1       -0.1270
      9 C           2.5204    1.2596   -0.2578 C.ar    1  UNL1       -0.1479
     10 C           1.1695    0.9661   -0.3517 C.ar    1  UNL1       -0.2401
     11 H           1.3014   -2.3477    0.3211 H       1  UNL1        0.1439
     12 H           3.6964   -1.8169    0.5177 H       1  UNL1        0.1470
     13 H           4.4867    0.4995    0.1431 H       1  UNL1        0.1493
     14 H           2.8623    2.2697   -0.4434 H       1  UNL1        0.1467
     15 H           0.4774    1.7476   -0.6308 H       1  UNL1        0.1816
     16 H          -0.8690   -1.7541   -0.4831 H       1  UNL1        0.1553
     17 C          -1.8631    1.4437    0.4885 C.3     1  UNL1       -0.4305
     18 H          -1.8931    2.1364   -0.3560 H       1  UNL1        0.1527
     19 H          -2.7735    1.6016    1.0657 H       1  UNL1        0.1427
     20 H          -1.0028    1.7013    1.1049 H       1  UNL1        0.1609
     21 H          -2.9846   -1.7373   -0.4917 H       1  UNL1        0.0956
@<TRIPOS>BOND
     1    15    10    1
     2    21     2    1
     3    16     4    1
     4    14     9    1
     5    18    17    1
     6    10     9   ar
     7    10     5   ar
     8     9     8   ar
     9     4     5    1
    10     4     1    2
    11     2     3    2
    12     2     1    1
    13     5     6   ar
    14     1    17    1
    15     8    13    1
    16     8     7   ar
    17     6     7   ar
    18     6    11    1
    19     7    12    1
    20    17    19    1
    21    17    20    1
