@<TRIPOS>MOLECULE
GS-512-0.out
 24 24 0 0 0
SMALL
MULLIKEN_CHARGES
****
Gaussian 16 # wB97XD def2tzvp, opt=(calcfc, maxcycles=70, maxstep=10), freq=norama
@<TRIPOS>ATOM
      1 C           1.0654    0.2425   -0.2864 C.2     1  UNL1       -0.0459
      2 C          -0.1817   -0.1223   -1.0504 C.2     1  UNL1        0.3480
      3 O          -0.0983   -0.4625   -2.2100 O.2     1  UNL1       -0.3707
      4 C           1.5162    1.4764   -0.0976 C.2     1  UNL1       -0.0366
      5 C           2.7772    1.8302    0.6245 C.3     1  UNL1       -0.3462
      6 H           3.4269    2.4118   -0.0335 H       1  UNL1        0.1440
      7 H           2.5411    2.4657    1.4816 H       1  UNL1        0.1441
      8 H           3.3248    0.9598    0.9761 H       1  UNL1        0.1345
      9 C           0.7395    2.6527   -0.6224 C.3     1  UNL1       -0.3465
     10 H           0.4742    3.3151    0.2049 H       1  UNL1        0.1446
     11 H           1.3631    3.2281   -1.3102 H       1  UNL1        0.1499
     12 H          -0.1741    2.3738   -1.1441 H       1  UNL1        0.1431
     13 BR          1.9422   -1.3248    0.3523 Br      1  UNL1       -0.0780
     14 C          -1.4842   -0.0707   -0.3336 C.ar    1  UNL1        0.0199
     15 C          -2.6475   -0.4067   -1.0266 C.ar    1  UNL1       -0.2158
     16 C          -3.8730   -0.3648   -0.3888 C.ar    1  UNL1       -0.1195
     17 C          -3.9470    0.0110    0.9477 C.ar    1  UNL1       -0.1233
     18 C          -2.7945    0.3447    1.6437 C.ar    1  UNL1       -0.1453
     19 C          -1.5652    0.3051    1.0053 C.ar    1  UNL1       -0.1777
     20 H          -2.5751   -0.6976   -2.0662 H       1  UNL1        0.1497
     21 H          -4.7736   -0.6244   -0.9297 H       1  UNL1        0.1510
     22 H          -4.9073    0.0433    1.4466 H       1  UNL1        0.1532
     23 H          -2.8527    0.6365    2.6840 H       1  UNL1        0.1506
     24 H          -0.6671    0.5680    1.5486 H       1  UNL1        0.1732
@<TRIPOS>BOND
     1     3     2    2
     2    20    15    1
     3    11     9    1
     4    12     9    1
     5     2    14    1
     6     2     1    1
     7    15    16   ar
     8    15    14   ar
     9    21    16    1
    10     9     4    1
    11     9    10    1
    12    16    17   ar
    13    14    19   ar
    14     1     4    2
    15     1    13    1
    16     4     5    1
    17     6     5    1
    18     5     8    1
    19     5     7    1
    20    17    22    1
    21    17    18   ar
    22    19    24    1
    23    19    18   ar
    24    18    23    1
