@<TRIPOS>MOLECULE
GS-53-0.out
 23 23 0 0 0
SMALL
MULLIKEN_CHARGES
****
Gaussian 16 # wB97XD def2tzvp, opt=(calcfc, maxcycles=70, maxstep=10), freq=norama
@<TRIPOS>ATOM
      1 C          -1.0680   -0.3036    0.0001 C.2     1  UNL1       -0.1721
      2 C          -2.4615    0.2117    0.0003 C.2     1  UNL1        0.3748
      3 O          -2.7372    1.4085    0.0004 O.2     1  UNL1       -0.5107
      4 C          -0.0332    0.5339    0.0001 C.2     1  UNL1       -0.2052
      5 C           1.3918    0.1914   -0.0001 C.ar    1  UNL1        0.2485
      6 C           1.8612   -1.1252   -0.0001 C.ar    1  UNL1       -0.2288
      7 C           3.2189   -1.3896   -0.0003 C.ar    1  UNL1       -0.1404
      8 C           4.1372   -0.3461   -0.0004 C.ar    1  UNL1       -0.1369
      9 C           3.6865    0.9649   -0.0004 C.ar    1  UNL1       -0.1400
     10 C           2.3254    1.2288   -0.0002 C.ar    1  UNL1       -0.2245
     11 H           1.1639   -1.9531    0.0001 H       1  UNL1        0.1391
     12 H           3.5654   -2.4153   -0.0003 H       1  UNL1        0.1461
     13 H           5.1990   -0.5572   -0.0006 H       1  UNL1        0.1484
     14 H           4.3942    1.7841   -0.0006 H       1  UNL1        0.1460
     15 H           1.9765    2.2548   -0.0002 H       1  UNL1        0.1441
     16 H          -0.2624    1.5958    0.0002 H       1  UNL1        0.1366
     17 H          -0.9340   -1.3792    0.0000 H       1  UNL1        0.1491
     18 N          -3.4145   -0.7392    0.0002 N.am    1  UNL1       -0.3105
     19 C          -4.8231   -0.4167    0.0003 C.3     1  UNL1       -0.2537
     20 H          -3.1402   -1.7051    0.0001 H       1  UNL1        0.2718
     21 H          -5.3928   -1.3425   -0.0003 H       1  UNL1        0.1469
     22 H          -5.0908    0.1632    0.8851 H       1  UNL1        0.1358
     23 H          -5.0907    0.1644   -0.8838 H       1  UNL1        0.1358
@<TRIPOS>BOND
     1    23    19    1
     2    13     8    1
     3    14     9    1
     4     8     9   ar
     5     8     7   ar
     6     9    10   ar
     7    21    19    1
     8    12     7    1
     9     7     6   ar
    10    10    15    1
    11    10     5   ar
    12     6     5   ar
    13     6    11    1
    14     5     4    1
    15    17     1    1
    16     4     1    2
    17     4    16    1
    18     1     2    1
    19    20    18    1
    20    18     2   am
    21    18    19    1
    22     2     3    2
    23    19    22    1
