@<TRIPOS>MOLECULE
GS-548-0.out
 15 14 0 0 0
SMALL
MULLIKEN_CHARGES
****
Gaussian 16 # wB97XD def2tzvp, opt=(calcfc, maxcycles=70, maxstep=10), freq=norama
@<TRIPOS>ATOM
      1 C           0.4610   -0.1814    0.0658 C.2     1  UNL1       -0.0657
      2 C           0.2695    1.2792    0.3528 C.2     1  UNL1        0.4167
      3 O           0.2736    1.7411    1.4629 O.2     1  UNL1       -0.3860
      4 C          -0.5138   -1.0660   -0.0765 C.2     1  UNL1        0.0007
      5 C          -0.4130   -2.5303   -0.3175 C.3     1  UNL1       -0.3499
      6 H           0.6263   -2.8451   -0.3782 H       1  UNL1        0.1469
      7 H          -0.9023   -3.0763    0.4904 H       1  UNL1        0.1580
      8 H          -0.9173   -2.7905   -1.2492 H       1  UNL1        0.1586
      9 BR         -2.3022   -0.4176    0.0426 Br      1  UNL1       -0.0504
     10 BR          2.2916   -0.6560   -0.0189 Br      1  UNL1       -0.0239
     11 O           0.1339    1.9752   -0.7623 O.3     1  UNL1       -0.2524
     12 C          -0.0428    3.3908   -0.6121 C.3     1  UNL1       -0.2016
     13 H          -0.1291    3.7818   -1.6206 H       1  UNL1        0.1539
     14 H          -0.9486    3.5959   -0.0438 H       1  UNL1        0.1472
     15 H           0.8178    3.8246   -0.1054 H       1  UNL1        0.1476
@<TRIPOS>BOND
     1    13    12    1
     2     8     5    1
     3    11    12    1
     4    11     2    1
     5    12    15    1
     6    12    14    1
     7     6     5    1
     8     5     4    1
     9     5     7    1
    10     4     9    1
    11     4     1    2
    12    10     1    1
    13     1     2    1
    14     2     3    2
