@<TRIPOS>MOLECULE
GS-576-0.out
 21 21 0 0 0
SMALL
MULLIKEN_CHARGES
****
Gaussian 16 # wB97XD def2tzvp, opt=(calcfc, maxcycles=70, maxstep=10), freq=norama
@<TRIPOS>ATOM
      1 C           1.5312    0.8653   -0.7054 C.2     1  UNL1       -0.2555
      2 C           0.2231    1.3974   -0.2244 C.2     1  UNL1        0.3725
      3 O           0.1536    2.5697    0.0865 O.2     1  UNL1       -0.3896
      4 C           2.2508   -0.1162   -0.1788 C.2     1  UNL1        0.0631
      5 C           3.6011   -0.5422   -0.6432 C.3     1  UNL1       -0.3379
      6 H           3.9061    0.0457   -1.5074 H       1  UNL1        0.1435
      7 H           4.3368   -0.4150    0.1525 H       1  UNL1        0.1503
      8 H           3.5888   -1.5986   -0.9171 H       1  UNL1        0.1502
      9 CL          1.6741   -1.0119    1.2073 Cl      1  UNL1       -0.0984
     10 H           1.9765    1.4288   -1.5179 H       1  UNL1        0.1797
     11 C          -0.9752    0.5150   -0.1895 C.ar    1  UNL1        0.0435
     12 C          -1.0271   -0.6694   -0.9199 C.ar    1  UNL1       -0.2011
     13 C          -2.1737   -1.4469   -0.9045 C.ar    1  UNL1       -0.1324
     14 C          -3.2679   -1.0528   -0.1479 C.ar    1  UNL1       -0.1293
     15 C          -3.2205    0.1261    0.5866 C.ar    1  UNL1       -0.1234
     16 C          -2.0820    0.9112    0.5592 C.ar    1  UNL1       -0.2065
     17 H          -0.1728   -0.9791   -1.5079 H       1  UNL1        0.1713
     18 H          -2.2126   -2.3620   -1.4810 H       1  UNL1        0.1498
     19 H          -4.1608   -1.6648   -0.1298 H       1  UNL1        0.1518
     20 H          -4.0737    0.4308    1.1786 H       1  UNL1        0.1497
     21 H          -2.0347    1.8345    1.1215 H       1  UNL1        0.1487
@<TRIPOS>BOND
     1    10     1    1
     2    17    12    1
     3     6     5    1
     4    18    13    1
     5    12    13   ar
     6    12    11   ar
     7     8     5    1
     8    13    14   ar
     9     1     2    1
    10     1     4    2
    11     5     4    1
    12     5     7    1
    13     2    11    1
    14     2     3    2
    15    11    16   ar
    16     4     9    1
    17    14    19    1
    18    14    15   ar
    19    16    15   ar
    20    16    21    1
    21    15    20    1
