@<TRIPOS>MOLECULE
GS-504-0.out
 27 27 0 0 0
SMALL
MULLIKEN_CHARGES
****
Gaussian 16 # wB97XD def2tzvp, opt=(calcfc, maxcycles=70, maxstep=10), freq=norama
@<TRIPOS>ATOM
      1 C          -1.6041    0.4561    0.2989 C.2     1  UNL1       -0.0407
      2 C          -0.3326    1.1062   -0.1715 C.2     1  UNL1        0.3193
      3 O          -0.3617    2.2323   -0.6290 O.2     1  UNL1       -0.3993
      4 C          -2.1321   -0.5793   -0.3583 C.2     1  UNL1       -0.0226
      5 C          -3.4169   -1.2565    0.0232 C.3     1  UNL1       -0.3515
      6 H          -3.2466   -2.3309    0.1335 H       1  UNL1        0.1320
      7 H          -3.8533   -0.8877    0.9473 H       1  UNL1        0.1159
      8 H          -4.1552   -1.1370   -0.7745 H       1  UNL1        0.1375
      9 C          -1.4939   -1.1783   -1.5825 C.3     1  UNL1       -0.3676
     10 H          -1.1984   -2.2129   -1.3856 H       1  UNL1        0.1383
     11 H          -2.2172   -1.2065   -2.4015 H       1  UNL1        0.1408
     12 H          -0.6165   -0.6366   -1.9307 H       1  UNL1        0.1366
     13 C          -2.1749    1.1463    1.5078 C.3     1  UNL1       -0.3360
     14 H          -2.3510    2.2016    1.2888 H       1  UNL1        0.1403
     15 H          -3.1117    0.7072    1.8397 H       1  UNL1        0.1178
     16 H          -1.4684    1.1055    2.3419 H       1  UNL1        0.1374
     17 C           0.9650    0.3856   -0.0017 C.ar    1  UNL1        0.0347
     18 C           2.1200    0.9279   -0.5639 C.ar    1  UNL1       -0.2124
     19 C           3.3368    0.2881   -0.4125 C.ar    1  UNL1       -0.1233
     20 C           3.4127   -0.8958    0.3120 C.ar    1  UNL1       -0.1267
     21 C           2.2696   -1.4381    0.8806 C.ar    1  UNL1       -0.1421
     22 C           1.0482   -0.8023    0.7205 C.ar    1  UNL1       -0.1916
     23 H           2.0477    1.8519   -1.1223 H       1  UNL1        0.1458
     24 H           4.2289    0.7093   -0.8577 H       1  UNL1        0.1484
     25 H           4.3657   -1.3954    0.4324 H       1  UNL1        0.1509
     26 H           2.3285   -2.3582    1.4473 H       1  UNL1        0.1480
     27 H           0.1545   -1.2278    1.1577 H       1  UNL1        0.1703
@<TRIPOS>BOND
     1    11     9    1
     2    12     9    1
     3     9    10    1
     4     9     4    1
     5    23    18    1
     6    24    19    1
     7     8     5    1
     8     3     2    2
     9    18    19   ar
    10    18    17   ar
    11    19    20   ar
    12     4     5    1
    13     4     1    2
    14     2    17    1
    15     2     1    1
    16    17    22   ar
    17     5     6    1
    18     5     7    1
    19     1    13    1
    20    20    25    1
    21    20    21   ar
    22    22    21   ar
    23    22    27    1
    24    21    26    1
    25    14    13    1
    26    13    15    1
    27    13    16    1
