@<TRIPOS>MOLECULE
GS-563-0.out
 23 23 0 0 0
SMALL
MULLIKEN_CHARGES
****
Gaussian 16 # wB97XD def2tzvp, opt=(calcfc, maxcycles=70, maxstep=10), freq=norama
@<TRIPOS>ATOM
      1 C          -0.5195    0.0870   -0.0299 C.2     1  UNL1       -0.0946
      2 C          -1.0497    1.4898    0.1468 C.2     1  UNL1        0.2706
      3 O          -1.2420    2.2246   -0.8089 O.2     1  UNL1       -0.4501
      4 C          -1.3329   -0.9508   -0.1976 C.2     1  UNL1        0.0814
      5 C          -0.9644   -2.3676   -0.4798 C.3     1  UNL1       -0.3864
      6 H           0.1048   -2.4631   -0.6546 H       1  UNL1        0.1541
      7 H          -1.2426   -3.0101    0.3577 H       1  UNL1        0.1553
      8 H          -1.5005   -2.7214   -1.3615 H       1  UNL1        0.1505
      9 CL         -3.0672   -0.6983   -0.1169 Cl      1  UNL1       -0.1089
     10 C           0.9625   -0.0250   -0.0261 C.ar    1  UNL1        0.2102
     11 C           1.7261    0.7494   -0.8985 C.ar    1  UNL1       -0.2154
     12 C           3.1093    0.6638   -0.8845 C.ar    1  UNL1       -0.1498
     13 C           3.7478   -0.1888    0.0054 C.ar    1  UNL1       -0.1366
     14 C           2.9955   -0.9533    0.8849 C.ar    1  UNL1       -0.1273
     15 C           1.6116   -0.8693    0.8722 C.ar    1  UNL1       -0.2545
     16 H           1.2305    1.4156   -1.5933 H       1  UNL1        0.1499
     17 H           3.6903    1.2646   -1.5726 H       1  UNL1        0.1455
     18 H           4.8283   -0.2536    0.0158 H       1  UNL1        0.1475
     19 H           3.4859   -1.6144    1.5880 H       1  UNL1        0.1461
     20 H           1.0273   -1.4577    1.5686 H       1  UNL1        0.1644
     21 N          -1.2302    1.8683    1.4212 N.am    1  UNL1       -0.4297
     22 H          -1.5650    2.7952    1.6232 H       1  UNL1        0.2813
     23 H          -1.0863    1.2286    2.1816 H       1  UNL1        0.2968
@<TRIPOS>BOND
     1    16    11    1
     2    17    12    1
     3     8     5    1
     4    11    12   ar
     5    11    10   ar
     6    12    13   ar
     7     3     2    2
     8     6     5    1
     9     5     4    1
    10     5     7    1
    11     4     9    1
    12     4     1    2
    13     1    10    1
    14     1     2    1
    15    10    15   ar
    16    13    18    1
    17    13    14   ar
    18     2    21   am
    19    15    14   ar
    20    15    20    1
    21    14    19    1
    22    21    22    1
    23    21    23    1
