@<TRIPOS>MOLECULE
GS-508-0.out
 18 17 0 0 0
SMALL
MULLIKEN_CHARGES
****
Gaussian 16 # wB97XD def2tzvp, opt=(calcfc, maxcycles=70, maxstep=10), freq=norama
@<TRIPOS>ATOM
      1 C          -0.2728    0.2892    0.0503 C.2     1  UNL1       -0.1248
      2 C           1.1804    0.5891    0.1827 C.2     1  UNL1        0.4401
      3 O           1.6181    1.5436    0.7789 O.2     1  UNL1       -0.4171
      4 C          -1.2218    1.2214   -0.0858 C.2     1  UNL1        0.0733
      5 C          -2.6814    0.9046   -0.1949 C.3     1  UNL1       -0.3630
      6 H          -3.2639    1.6958    0.2786 H       1  UNL1        0.1467
      7 H          -2.9695    0.8808   -1.2498 H       1  UNL1        0.1595
      8 H          -2.9459   -0.0502    0.2513 H       1  UNL1        0.1408
      9 C          -0.9165    2.6882   -0.1899 C.3     1  UNL1       -0.3671
     10 H          -1.5471    3.1227   -0.9680 H       1  UNL1        0.1447
     11 H          -1.1833    3.1795    0.7493 H       1  UNL1        0.1527
     12 H           0.1244    2.9057   -0.4036 H       1  UNL1        0.1406
     13 BR         -0.7020   -1.5706    0.0810 Br      1  UNL1       -0.0884
     14 O           1.9490   -0.3053   -0.4272 O.3     1  UNL1       -0.2723
     15 C           3.3606   -0.1038   -0.3259 C.3     1  UNL1       -0.1986
     16 H           3.8135   -0.9364   -0.8554 H       1  UNL1        0.1492
     17 H           3.6438    0.8401   -0.7899 H       1  UNL1        0.1418
     18 H           3.6699   -0.1045    0.7184 H       1  UNL1        0.1418
@<TRIPOS>BOND
     1     7     5    1
     2    10     9    1
     3    16    15    1
     4    17    15    1
     5    14    15    1
     6    14     2    1
     7    12     9    1
     8    15    18    1
     9     5     4    1
    10     5     8    1
    11     5     6    1
    12     9     4    1
    13     9    11    1
    14     4     1    2
    15     1    13    1
    16     1     2    1
    17     2     3    2
