@<TRIPOS>MOLECULE
GS-509-0.out
 19 18 0 0 0
SMALL
MULLIKEN_CHARGES
****
Gaussian 16 # wB97XD def2tzvp, opt=(calcfc, maxcycles=70, maxstep=10), freq=norama
@<TRIPOS>ATOM
      1 C           0.1855    0.2576    0.0860 C.2     1  UNL1       -0.0890
      2 C          -1.2020   -0.2571    0.3570 C.2     1  UNL1        0.3457
      3 O          -1.4971   -0.7986    1.4133 O.2     1  UNL1       -0.4743
      4 C           0.5327    1.5402    0.0355 C.2     1  UNL1       -0.0050
      5 C           1.9238    2.0404   -0.1976 C.3     1  UNL1       -0.3474
      6 H           1.9125    2.7965   -0.9857 H       1  UNL1        0.1400
      7 H           2.2934    2.5297    0.7072 H       1  UNL1        0.1477
      8 H           2.6200    1.2538   -0.4755 H       1  UNL1        0.1351
      9 C          -0.4871    2.6267    0.2452 C.3     1  UNL1       -0.3618
     10 H          -0.1330    3.3073    1.0225 H       1  UNL1        0.1419
     11 H          -0.5957    3.2137   -0.6699 H       1  UNL1        0.1489
     12 H          -1.4670    2.2542    0.5344 H       1  UNL1        0.1446
     13 BR          1.4293   -1.1754   -0.1048 Br      1  UNL1       -0.0880
     14 N          -2.0703   -0.0877   -0.6492 N.am    1  UNL1       -0.3021
     15 C          -3.4534   -0.5008   -0.5509 C.3     1  UNL1       -0.2498
     16 H          -1.7500    0.3651   -1.4868 H       1  UNL1        0.2844
     17 H          -3.9421   -0.3072   -1.5021 H       1  UNL1        0.1501
     18 H          -3.5205   -1.5655   -0.3253 H       1  UNL1        0.1393
     19 H          -3.9710    0.0523    0.2346 H       1  UNL1        0.1396
@<TRIPOS>BOND
     1    17    15    1
     2    16    14    1
     3     6     5    1
     4    11     9    1
     5    14    15    1
     6    14     2   am
     7    15    18    1
     8    15    19    1
     9     8     5    1
    10     5     4    1
    11     5     7    1
    12    13     1    1
    13     4     1    2
    14     4     9    1
    15     1     2    1
    16     9    12    1
    17     9    10    1
    18     2     3    2
