@<TRIPOS>MOLECULE
GS-534-0.out
 19 18 0 0 0
SMALL
MULLIKEN_CHARGES
****
Gaussian 16 # wB97XD def2tzvp, opt=(calcfc, maxcycles=70, maxstep=10), freq=norama
@<TRIPOS>ATOM
      1 C           0.0243    1.4234    0.0635 C.2     1  UNL1       -0.2658
      2 C           1.2665    0.7823   -0.4751 C.2     1  UNL1        0.3408
      3 O           1.5855    1.0239   -1.6362 O.2     1  UNL1       -0.4975
      4 C          -1.1710    0.8683    0.1628 C.2     1  UNL1        0.0246
      5 C          -2.4262    1.5565    0.5776 C.3     1  UNL1       -0.3431
      6 H          -2.2202    2.6044    0.7946 H       1  UNL1        0.1425
      7 H          -3.1772    1.5004   -0.2122 H       1  UNL1        0.1492
      8 H          -2.8463    1.0870    1.4686 H       1  UNL1        0.1491
      9 BR         -1.3960   -0.9859   -0.2460 Br      1  UNL1       -0.0928
     10 H           0.1114    2.4824    0.2844 H       1  UNL1        0.1808
     11 N           1.9900    0.0007    0.3459 N.am    1  UNL1       -0.1141
     12 C           3.1803   -0.6635   -0.1457 C.3     1  UNL1       -0.2727
     13 C           1.6577   -0.2715    1.7295 C.3     1  UNL1       -0.2918
     14 H           3.3202   -0.4254   -1.1951 H       1  UNL1        0.1497
     15 H           4.0543   -0.3353    0.4210 H       1  UNL1        0.1427
     16 H           3.0756   -1.7444   -0.0282 H       1  UNL1        0.1387
     17 H           0.8256    0.3450    2.0545 H       1  UNL1        0.1661
     18 H           1.3910   -1.3235    1.8567 H       1  UNL1        0.1476
     19 H           2.5217   -0.0539    2.3603 H       1  UNL1        0.1459
@<TRIPOS>BOND
     1     3     2    2
     2    14    12    1
     3     2     1    1
     4     2    11   am
     5     9     4    1
     6     7     5    1
     7    12    16    1
     8    12    11    1
     9    12    15    1
    10     1     4    2
    11     1    10    1
    12     4     5    1
    13    11    13    1
    14     5     6    1
    15     5     8    1
    16    13    18    1
    17    13    17    1
    18    13    19    1
