@<TRIPOS>MOLECULE
GS-526-0.out
 29 29 0 0 0
SMALL
MULLIKEN_CHARGES
****
Gaussian 16 # wB97XD def2tzvp, opt=(calcfc, maxcycles=70, maxstep=10), freq=norama
@<TRIPOS>ATOM
      1 C           0.0901   -0.1775   -0.2187 C.2     1  UNL1       -0.1107
      2 C          -0.4400    1.1982   -0.5475 C.2     1  UNL1        0.2800
      3 O          -0.5939    1.5086   -1.7245 O.2     1  UNL1       -0.4839
      4 C          -0.7061   -1.2327   -0.0856 C.2     1  UNL1        0.0422
      5 C          -0.3186   -2.6633    0.0815 C.3     1  UNL1       -0.3915
      6 H           0.7529   -2.7912   -0.0597 H       1  UNL1        0.1574
      7 H          -0.5861   -3.0241    1.0766 H       1  UNL1        0.1569
      8 H          -0.8448   -3.2819   -0.6468 H       1  UNL1        0.1527
      9 BR         -2.6025   -0.9694   -0.1011 Br      1  UNL1       -0.0899
     10 C           1.5731   -0.2596   -0.1338 C.ar    1  UNL1        0.1929
     11 C           2.1931   -0.8209    0.9808 C.ar    1  UNL1       -0.2688
     12 C           3.5758   -0.8724    1.0674 C.ar    1  UNL1       -0.1295
     13 C           4.3572   -0.3573    0.0438 C.ar    1  UNL1       -0.1324
     14 C           3.7481    0.2146   -1.0645 C.ar    1  UNL1       -0.1535
     15 C           2.3662    0.2686   -1.1519 C.ar    1  UNL1       -0.2282
     16 H           1.5884   -1.2139    1.7886 H       1  UNL1        0.1751
     17 H           4.0420   -1.3118    1.9400 H       1  UNL1        0.1456
     18 H           5.4368   -0.3968    0.1113 H       1  UNL1        0.1471
     19 H           4.3516    0.6206   -1.8664 H       1  UNL1        0.1449
     20 H           1.8939    0.7171   -2.0164 H       1  UNL1        0.1498
     21 N          -0.6555    2.0397    0.4784 N.am    1  UNL1       -0.0864
     22 C          -1.1076    3.3931    0.2258 C.3     1  UNL1       -0.2800
     23 C          -0.5140    1.6847    1.8755 C.3     1  UNL1       -0.2863
     24 H          -1.0982    3.5846   -0.8422 H       1  UNL1        0.1516
     25 H          -2.1212    3.5305    0.6097 H       1  UNL1        0.1435
     26 H          -0.4460    4.1006    0.7293 H       1  UNL1        0.1407
     27 H          -0.2329    0.6422    1.9844 H       1  UNL1        0.1639
     28 H           0.2495    2.3081    2.3458 H       1  UNL1        0.1490
     29 H          -1.4615    1.8442    2.3948 H       1  UNL1        0.1478
@<TRIPOS>BOND
     1    20    15    1
     2    19    14    1
     3     3     2    2
     4    15    14   ar
     5    15    10   ar
     6    14    13   ar
     7    24    22    1
     8     8     5    1
     9     2     1    1
    10     2    21   am
    11     1    10    1
    12     1     4    2
    13    10    11   ar
    14     9     4    1
    15     4     5    1
    16     6     5    1
    17    13    18    1
    18    13    12   ar
    19     5     7    1
    20    22    21    1
    21    22    25    1
    22    22    26    1
    23    21    23    1
    24    11    12   ar
    25    11    16    1
    26    12    17    1
    27    23    27    1
    28    23    28    1
    29    23    29    1
