@<TRIPOS>MOLECULE
GS-537-1.out
 14 13 0 0 0
SMALL
MULLIKEN_CHARGES
****
Gaussian 16 # wB97XD def2tzvp, opt=(calcfc, maxcycles=70, maxstep=1), freq=noraman
@<TRIPOS>ATOM
      1 C           1.1871    0.2998    0.0000 C.2     1  UNL1       -0.0739
      2 C           1.5222   -1.1386    0.0002 C.2     1  UNL1        0.1674
      3 O           2.6620   -1.5458    0.0004 O.2     1  UNL1       -0.3799
      4 C          -0.0805    0.7319   -0.0001 C.2     1  UNL1        0.0791
      5 C          -0.5652    2.1414   -0.0005 C.3     1  UNL1       -0.3347
      6 H           0.2525    2.8561   -0.0007 H       1  UNL1        0.1310
      7 H          -1.1867    2.3205   -0.8796 H       1  UNL1        0.1568
      8 H          -1.1865    2.3209    0.8787 H       1  UNL1        0.1568
      9 BR         -1.5606   -0.4877    0.0000 Br      1  UNL1       -0.0834
     10 C           2.3794    1.2142   -0.0001 C.3     1  UNL1       -0.3412
     11 H           2.9970    1.0143   -0.8771 H       1  UNL1        0.1410
     12 H           2.1132    2.2658    0.0001 H       1  UNL1        0.1228
     13 H           2.9972    1.0141    0.8768 H       1  UNL1        0.1410
     14 H           0.6808   -1.8463    0.0003 H       1  UNL1        0.1171
@<TRIPOS>BOND
     1     7     5    1
     2    11    10    1
     3     6     5    1
     4     5     4    1
     5     5     8    1
     6     4     1    2
     7     4     9    1
     8    10     1    1
     9    10    12    1
    10    10    13    1
    11     1     2    1
    12     2    14    1
    13     2     3    2
