@<TRIPOS>MOLECULE
GS-551-0.out
 23 23 0 0 0
SMALL
MULLIKEN_CHARGES
****
Gaussian 16 # wB97XD def2tzvp, opt=(calcfc, maxcycles=70, maxstep=10), freq=norama
@<TRIPOS>ATOM
      1 C          -1.3415   -0.4233    0.0768 C.2     1  UNL1       -0.1362
      2 C           0.0684   -0.4196    0.6155 C.2     1  UNL1        0.4366
      3 O           0.2803   -0.5836    1.8005 O.2     1  UNL1       -0.4374
      4 C          -2.0804    0.6492   -0.1675 C.2     1  UNL1        0.0030
      5 C          -3.4890    0.7223   -0.6412 C.3     1  UNL1       -0.3534
      6 H          -3.8973   -0.2717   -0.8084 H       1  UNL1        0.1464
      7 H          -4.1044    1.2390    0.0967 H       1  UNL1        0.1587
      8 H          -3.5402    1.2881   -1.5724 H       1  UNL1        0.1581
      9 BR         -1.2820    2.3557    0.1325 Br      1  UNL1       -0.0537
     10 BR         -2.0163   -2.1815   -0.1425 Br      1  UNL1       -0.0302
     11 N           1.0048   -0.2541   -0.3455 N.am    1  UNL1       -0.2602
     12 C           2.4056   -0.1947   -0.2201 C.ar    1  UNL1        0.3070
     13 C           3.1341    0.0315   -1.3878 C.ar    1  UNL1       -0.2949
     14 C           4.5144    0.1013   -1.3461 C.ar    1  UNL1       -0.0980
     15 C           5.1879   -0.0528   -0.1417 C.ar    1  UNL1       -0.1813
     16 C           4.4611   -0.2773    1.0162 C.ar    1  UNL1       -0.1097
     17 C           3.0750   -0.3504    0.9908 C.ar    1  UNL1       -0.2896
     18 H           0.6489   -0.1274   -1.2797 H       1  UNL1        0.2806
     19 H           2.6154    0.1530   -2.3315 H       1  UNL1        0.1483
     20 H           5.0652    0.2775   -2.2611 H       1  UNL1        0.1482
     21 H           6.2681    0.0020   -0.1086 H       1  UNL1        0.1453
     22 H           4.9739   -0.3993    1.9619 H       1  UNL1        0.1466
     23 H           2.5187   -0.5253    1.8970 H       1  UNL1        0.1658
@<TRIPOS>BOND
     1    19    13    1
     2    20    14    1
     3     8     5    1
     4    13    14   ar
     5    13    12   ar
     6    14    15   ar
     7    18    11    1
     8     6     5    1
     9     5     4    1
    10     5     7    1
    11    11    12    1
    12    11     2   am
    13    12    17   ar
    14     4     1    2
    15     4     9    1
    16    10     1    1
    17    15    21    1
    18    15    16   ar
    19     1     2    1
    20     2     3    2
    21    17    16   ar
    22    17    23    1
    23    16    22    1
