@<TRIPOS>MOLECULE
GS-592-0.out
 21 21 0 0 0
SMALL
MULLIKEN_CHARGES
****
Gaussian 16 # wB97XD def2tzvp, opt=(calcfc, maxcycles=70, maxstep=10), freq=norama
@<TRIPOS>ATOM
      1 C          -1.0328    0.0453    0.2189 C.2     1  UNL1       -0.0981
      2 C           0.2299   -0.0536    1.0439 C.2     1  UNL1        0.3646
      3 O           0.1403   -0.1223    2.2478 O.2     1  UNL1       -0.3605
      4 C          -1.5950    1.1741   -0.1869 C.2     1  UNL1        0.0567
      5 C          -2.8535    1.3746   -0.9529 C.3     1  UNL1       -0.3465
      6 H          -3.3311    0.4241   -1.1778 H       1  UNL1        0.1448
      7 H          -3.5443    1.9923   -0.3772 H       1  UNL1        0.1572
      8 H          -2.6390    1.8948   -1.8876 H       1  UNL1        0.1565
      9 CL         -0.7621    2.6589    0.2138 Cl      1  UNL1       -0.0862
     10 BR         -1.7870   -1.6520   -0.1404 Br      1  UNL1       -0.0271
     11 C           1.5283   -0.0994    0.3274 C.ar    1  UNL1        0.0314
     12 C           2.7011   -0.2247    1.0720 C.ar    1  UNL1       -0.2121
     13 C           3.9262   -0.2676    0.4336 C.ar    1  UNL1       -0.1208
     14 C           3.9891   -0.1868   -0.9529 C.ar    1  UNL1       -0.1173
     15 C           2.8265   -0.0632   -1.6993 C.ar    1  UNL1       -0.1506
     16 C           1.5975   -0.0191   -1.0617 C.ar    1  UNL1       -0.1769
     17 H           2.6370   -0.2869    2.1502 H       1  UNL1        0.1517
     18 H           4.8350   -0.3641    1.0130 H       1  UNL1        0.1521
     19 H           4.9494   -0.2206   -1.4517 H       1  UNL1        0.1543
     20 H           2.8768   -0.0002   -2.7782 H       1  UNL1        0.1519
     21 H           0.6924    0.0802   -1.6469 H       1  UNL1        0.1751
@<TRIPOS>BOND
     1    20    15    1
     2     8     5    1
     3    15    16   ar
     4    15    14   ar
     5    21    16    1
     6    19    14    1
     7     6     5    1
     8    16    11   ar
     9     5     7    1
    10     5     4    1
    11    14    13   ar
    12     4     9    1
    13     4     1    2
    14    10     1    1
    15     1     2    1
    16    11     2    1
    17    11    12   ar
    18    13    18    1
    19    13    12   ar
    20     2     3    2
    21    12    17    1
