@<TRIPOS>MOLECULE
GS-55-1.out
 30 31 0 0 0
SMALL
MULLIKEN_CHARGES
****
Gaussian 16 # wB97XD def2tzvp, opt=(maxcycles=70, maxstep=1), freq=noraman, scrf=(
@<TRIPOS>ATOM
      1 C           0.7189    0.1492   -0.0045 C.2     1  UNL1       -0.2057
      2 C          -0.6345   -0.4602   -0.0065 C.2     1  UNL1        0.4326
      3 O          -0.8218   -1.6675   -0.0123 O.2     1  UNL1       -0.4905
      4 C           1.8054   -0.6216   -0.0056 C.2     1  UNL1       -0.1821
      5 C           3.2038   -0.1870   -0.0031 C.ar    1  UNL1        0.2442
      6 C           3.5851    1.1578   -0.0212 C.ar    1  UNL1       -0.2255
      7 C           4.9223    1.5106   -0.0162 C.ar    1  UNL1       -0.1445
      8 C           5.9068    0.5293    0.0070 C.ar    1  UNL1       -0.1324
      9 C           5.5435   -0.8085    0.0242 C.ar    1  UNL1       -0.1409
     10 C           4.2029   -1.1614    0.0187 C.ar    1  UNL1       -0.2259
     11 H           2.8352    1.9381   -0.0406 H       1  UNL1        0.1389
     12 H           5.2011    2.5566   -0.0307 H       1  UNL1        0.1467
     13 H           6.9523    0.8096    0.0109 H       1  UNL1        0.1491
     14 H           6.3036   -1.5790    0.0418 H       1  UNL1        0.1466
     15 H           3.9217   -2.2078    0.0320 H       1  UNL1        0.1447
     16 H           1.6450   -1.6960   -0.0069 H       1  UNL1        0.1423
     17 H           0.7870    1.2306   -0.0008 H       1  UNL1        0.1506
     18 N          -1.6384    0.4633   -0.0010 N.am    1  UNL1       -0.2691
     19 C          -3.0286    0.2732    0.0009 C.ar    1  UNL1        0.3066
     20 C          -3.8237    1.4214    0.0150 C.ar    1  UNL1       -0.3065
     21 C          -5.2026    1.3203    0.0174 C.ar    1  UNL1       -0.0961
     22 C          -5.8149    0.0739    0.0057 C.ar    1  UNL1       -0.1887
     23 C          -5.0254   -1.0645   -0.0084 C.ar    1  UNL1       -0.1080
     24 C          -3.6397   -0.9795   -0.0110 C.ar    1  UNL1       -0.2928
     25 H          -1.3457    1.4262    0.0048 H       1  UNL1        0.2623
     26 H          -3.3552    2.3989    0.0243 H       1  UNL1        0.1450
     27 H          -5.8011    2.2223    0.0285 H       1  UNL1        0.1463
     28 H          -6.8941   -0.0062    0.0076 H       1  UNL1        0.1435
     29 H          -5.4884   -2.0434   -0.0178 H       1  UNL1        0.1444
     30 H          -3.0348   -1.8709   -0.0220 H       1  UNL1        0.1649
@<TRIPOS>BOND
     1    11     6    1
     2    12     7    1
     3    30    24    1
     4     6     7   ar
     5     6     5   ar
     6    29    23    1
     7     7     8   ar
     8     3     2    2
     9    24    23   ar
    10    24    19   ar
    11    23    22   ar
    12    16     4    1
    13     2     1    1
    14     2    18   am
    15     4     1    2
    16     4     5    1
    17     1    17    1
    18     5    10   ar
    19    18    19    1
    20    18    25    1
    21    19    20   ar
    22    22    28    1
    23    22    21   ar
    24     8    13    1
    25     8     9   ar
    26    20    21   ar
    27    20    26    1
    28    21    27    1
    29    10     9   ar
    30    10    15    1
    31     9    14    1
