@<TRIPOS>MOLECULE
GS-583-0.out
 26 26 0 0 0
SMALL
MULLIKEN_CHARGES
****
Gaussian 16 # wB97XD def2tzvp, opt=(calcfc, maxcycles=70, maxstep=10), freq=norama
@<TRIPOS>ATOM
      1 C           2.0020    0.7475    0.2871 C.2     1  UNL1       -0.1532
      2 C           0.5957    0.8578   -0.2449 C.2     1  UNL1        0.4222
      3 O           0.3451    1.5686   -1.2020 O.2     1  UNL1       -0.4599
      4 C           2.7511   -0.3247    0.0560 C.2     1  UNL1        0.0640
      5 C           4.1643   -0.5786    0.4586 C.3     1  UNL1       -0.3460
      6 H           4.5714    0.2451    1.0390 H       1  UNL1        0.1259
      7 H           4.2248   -1.4883    1.0583 H       1  UNL1        0.1481
      8 H           4.7878   -0.7231   -0.4254 H       1  UNL1        0.1487
      9 CL          2.0747   -1.6647   -0.8647 Cl      1  UNL1       -0.1221
     10 C           2.4556    1.9816    1.0128 C.3     1  UNL1       -0.3222
     11 H           1.8176    2.1643    1.8807 H       1  UNL1        0.1459
     12 H           3.4849    1.9169    1.3532 H       1  UNL1        0.1236
     13 H           2.3644    2.8467    0.3531 H       1  UNL1        0.1487
     14 N          -0.3221    0.1626    0.4716 N.am    1  UNL1       -0.2699
     15 C          -1.7072    0.0373    0.2662 C.ar    1  UNL1        0.3071
     16 C          -2.3914   -0.8562    1.0913 C.ar    1  UNL1       -0.2977
     17 C          -3.7565   -1.0297    0.9546 C.ar    1  UNL1       -0.0987
     18 C          -4.4613   -0.3172   -0.0064 C.ar    1  UNL1       -0.1849
     19 C          -3.7799    0.5696   -0.8243 C.ar    1  UNL1       -0.1085
     20 C          -2.4100    0.7558   -0.6983 C.ar    1  UNL1       -0.2926
     21 H           0.0532   -0.3904    1.2254 H       1  UNL1        0.2760
     22 H          -1.8484   -1.4176    1.8426 H       1  UNL1        0.1461
     23 H          -4.2707   -1.7273    1.6033 H       1  UNL1        0.1470
     24 H          -5.5294   -0.4532   -0.1145 H       1  UNL1        0.1441
     25 H          -4.3170    1.1325   -1.5775 H       1  UNL1        0.1453
     26 H          -1.8890    1.4483   -1.3388 H       1  UNL1        0.1631
@<TRIPOS>BOND
     1    25    19    1
     2    26    20    1
     3     3     2    2
     4     9     4    1
     5    19    20   ar
     6    19    18   ar
     7    20    15   ar
     8     8     5    1
     9     2     1    1
    10     2    14   am
    11    24    18    1
    12    18    17   ar
    13     4     1    2
    14     4     5    1
    15    15    14    1
    16    15    16   ar
    17     1    10    1
    18    13    10    1
    19     5     6    1
    20     5     7    1
    21    14    21    1
    22    17    16   ar
    23    17    23    1
    24    10    12    1
    25    10    11    1
    26    16    22    1
