@<TRIPOS>MOLECULE
GS-58-0.out
 24 24 0 0 0
SMALL
MULLIKEN_CHARGES
****
Gaussian 16 # wB97XD def2tzvp, opt=(calcfc, maxcycles=70, maxstep=10), freq=norama
@<TRIPOS>ATOM
      1 C          -1.4607    0.3352   -0.1200 C.2     1  UNL1        0.0281
      2 C          -2.8719   -0.1292    0.0291 C.2     1  UNL1        0.2566
      3 O          -3.7856    0.6567   -0.1392 O.2     1  UNL1       -0.4095
      4 C          -0.4598   -0.5234    0.1220 C.2     1  UNL1       -0.1644
      5 C           0.9874   -0.2727    0.0848 C.ar    1  UNL1        0.1875
      6 C           1.8285   -1.2941   -0.3645 C.ar    1  UNL1       -0.2263
      7 C           3.2001   -1.1133   -0.4204 C.ar    1  UNL1       -0.1541
      8 C           3.7604    0.0859   -0.0014 C.ar    1  UNL1       -0.1292
      9 C           2.9398    1.0970    0.4772 C.ar    1  UNL1       -0.1417
     10 C           1.5655    0.9216    0.5192 C.ar    1  UNL1       -0.2686
     11 H           1.3965   -2.2364   -0.6805 H       1  UNL1        0.1430
     12 H           3.8341   -1.9120   -0.7840 H       1  UNL1        0.1452
     13 H           4.8331    0.2269   -0.0366 H       1  UNL1        0.1477
     14 H           3.3714    2.0268    0.8255 H       1  UNL1        0.1453
     15 H           0.9412    1.7093    0.9182 H       1  UNL1        0.1787
     16 H          -0.7165   -1.5505    0.3549 H       1  UNL1        0.1672
     17 C          -1.2928    1.7615   -0.5522 C.3     1  UNL1       -0.4153
     18 H          -2.0692    2.0243   -1.2693 H       1  UNL1        0.1413
     19 H          -1.3946    2.4482    0.2917 H       1  UNL1        0.1468
     20 H          -0.3185    1.9274   -1.0077 H       1  UNL1        0.1561
     21 C          -3.1711   -1.5622    0.3977 C.3     1  UNL1       -0.3848
     22 H          -2.7483   -2.2519   -0.3340 H       1  UNL1        0.1550
     23 H          -2.7472   -1.8109    1.3716 H       1  UNL1        0.1555
     24 H          -4.2497   -1.6935    0.4338 H       1  UNL1        0.1399
@<TRIPOS>BOND
     1    18    17    1
     2    20    17    1
     3    12     7    1
     4    11     6    1
     5    17     1    1
     6    17    19    1
     7     7     6   ar
     8     7     8   ar
     9     6     5   ar
    10    22    21    1
    11     3     2    2
    12     1     2    1
    13     1     4    2
    14    13     8    1
    15     8     9   ar
    16     2    21    1
    17     5     4    1
    18     5    10   ar
    19     4    16    1
    20    21    24    1
    21    21    23    1
    22     9    10   ar
    23     9    14    1
    24    10    15    1
