@<TRIPOS>MOLECULE
GS-555-0.out
 13 12 0 0 0
SMALL
MULLIKEN_CHARGES
****
Gaussian 16 # wB97XD def2tzvp, opt=(calcfc, maxcycles=70, maxstep=10), freq=norama
@<TRIPOS>ATOM
      1 C          -0.8786    0.2272   -0.0005 C.2     1  UNL1        0.0032
      2 C          -1.0941   -1.2652    0.1107 C.2     1  UNL1        0.3061
      3 O          -1.3289   -1.7801    1.1884 O.2     1  UNL1       -0.4380
      4 C           0.2903    0.8518   -0.0210 C.2     1  UNL1       -0.0201
      5 C           0.5466    2.3170   -0.0687 C.3     1  UNL1       -0.3417
      6 H          -0.3869    2.8740   -0.1042 H       1  UNL1        0.1423
      7 H           1.1112    2.6277    0.8117 H       1  UNL1        0.1562
      8 H           1.1406    2.5646   -0.9497 H       1  UNL1        0.1559
      9 BR          1.8674   -0.2140    0.0369 Br      1  UNL1       -0.0533
     10 CL         -2.3795    1.1032   -0.0202 Cl      1  UNL1       -0.0726
     11 N          -1.0454   -1.9271   -1.0518 N.am    1  UNL1       -0.4294
     12 H          -1.1824   -2.9238   -1.0613 H       1  UNL1        0.2891
     13 H          -0.8249   -1.4599   -1.9130 H       1  UNL1        0.3024
@<TRIPOS>BOND
     1    13    11    1
     2    12    11    1
     3    11     2   am
     4     8     5    1
     5     6     5    1
     6     5     4    1
     7     5     7    1
     8     4     1    2
     9     4     9    1
    10    10     1    1
    11     1     2    1
    12     2     3    2
