@<TRIPOS>MOLECULE
GS-565-0.out
 26 26 0 0 0
SMALL
MULLIKEN_CHARGES
****
Gaussian 16 # wB97XD def2tzvp, opt=(calcfc, maxcycles=70, maxstep=10), freq=norama
@<TRIPOS>ATOM
      1 C          -0.3407    0.2546   -0.1346 C.2     1  UNL1       -0.0974
      2 C          -1.1169   -1.0300   -0.2905 C.2     1  UNL1        0.3134
      3 O          -1.3433   -1.5134   -1.3919 O.2     1  UNL1       -0.4748
      4 C          -0.9489    1.4359   -0.0932 C.2     1  UNL1        0.0811
      5 C          -0.3240    2.7884   -0.0402 C.3     1  UNL1       -0.3870
      6 H           0.7561    2.7213   -0.1495 H       1  UNL1        0.1534
      7 H          -0.7226    3.4131   -0.8408 H       1  UNL1        0.1502
      8 H          -0.5516    3.2791    0.9079 H       1  UNL1        0.1551
      9 CL         -2.7026    1.4943   -0.1301 Cl      1  UNL1       -0.1102
     10 C           1.1345    0.0900   -0.0601 C.ar    1  UNL1        0.1946
     11 C           1.8135   -0.6037   -1.0607 C.ar    1  UNL1       -0.2182
     12 C           3.1861   -0.7795   -0.9846 C.ar    1  UNL1       -0.1519
     13 C           3.8970   -0.2733    0.0948 C.ar    1  UNL1       -0.1334
     14 C           3.2268    0.4074    1.1007 C.ar    1  UNL1       -0.1312
     15 C           1.8536    0.5848    1.0259 C.ar    1  UNL1       -0.2541
     16 H           1.2607   -1.0006   -1.9028 H       1  UNL1        0.1493
     17 H           3.7026   -1.3131   -1.7724 H       1  UNL1        0.1450
     18 H           4.9689   -0.4124    0.1534 H       1  UNL1        0.1472
     19 H           3.7723    0.7979    1.9503 H       1  UNL1        0.1456
     20 H           1.3314    1.1054    1.8189 H       1  UNL1        0.1638
     21 N          -1.4799   -1.6127    0.8588 N.am    1  UNL1       -0.2909
     22 C          -2.2125   -2.8600    0.8955 C.3     1  UNL1       -0.2579
     23 H          -1.2804   -1.1359    1.7204 H       1  UNL1        0.2819
     24 H          -2.3296   -3.1635    1.9325 H       1  UNL1        0.1492
     25 H          -3.1997   -2.7488    0.4436 H       1  UNL1        0.1381
     26 H          -1.6708   -3.6375    0.3562 H       1  UNL1        0.1388
@<TRIPOS>BOND
     1    16    11    1
     2    17    12    1
     3     3     2    2
     4    11    12   ar
     5    11    10   ar
     6    12    13   ar
     7     7     5    1
     8     2     1    1
     9     2    21   am
    10     6     5    1
    11     1     4    2
    12     1    10    1
    13     9     4    1
    14     4     5    1
    15    10    15   ar
    16     5     8    1
    17    13    18    1
    18    13    14   ar
    19    26    22    1
    20    25    22    1
    21    21    22    1
    22    21    23    1
    23    22    24    1
    24    15    14   ar
    25    15    20    1
    26    14    19    1
