@<TRIPOS>MOLECULE
GS-584-0.out
 24 24 0 0 0
SMALL
MULLIKEN_CHARGES
****
Gaussian 16 # wB97XD def2tzvp, opt=(calcfc, maxcycles=70, maxstep=10), freq=norama
@<TRIPOS>ATOM
      1 C          -1.3708    0.7381    0.3780 C.2     1  UNL1       -0.1143
      2 C          -0.1466    1.0466   -0.4460 C.2     1  UNL1        0.3828
      3 O          -0.2185    1.8726   -1.3307 O.2     1  UNL1       -0.3847
      4 C          -2.1431   -0.3043    0.1035 C.2     1  UNL1        0.0505
      5 C          -3.4063   -0.7376    0.7657 C.3     1  UNL1       -0.3477
      6 H          -3.2941   -1.7463    1.1671 H       1  UNL1        0.1481
      7 H          -3.6803   -0.0701    1.5789 H       1  UNL1        0.1257
      8 H          -4.2241   -0.7574    0.0434 H       1  UNL1        0.1490
      9 CL         -1.6777   -1.3717   -1.2190 Cl      1  UNL1       -0.1282
     10 C          -1.6188    1.7438    1.4651 C.3     1  UNL1       -0.3157
     11 H          -1.7386    2.7379    1.0292 H       1  UNL1        0.1508
     12 H          -2.5030    1.5165    2.0540 H       1  UNL1        0.1266
     13 H          -0.7604    1.7861    2.1401 H       1  UNL1        0.1480
     14 C           1.1368    0.3813   -0.0915 C.ar    1  UNL1        0.0285
     15 C           2.2794    0.6763   -0.8343 C.ar    1  UNL1       -0.2200
     16 C           3.4859    0.0776   -0.5216 C.ar    1  UNL1       -0.1180
     17 C           3.5616   -0.8178    0.5391 C.ar    1  UNL1       -0.1235
     18 C           2.4297   -1.1138    1.2844 C.ar    1  UNL1       -0.1491
     19 C           1.2192   -0.5173    0.9695 C.ar    1  UNL1       -0.1848
     20 H           2.2061    1.3768   -1.6556 H       1  UNL1        0.1481
     21 H           4.3702    0.3066   -1.1019 H       1  UNL1        0.1502
     22 H           4.5068   -1.2856    0.7840 H       1  UNL1        0.1524
     23 H           2.4893   -1.8106    2.1102 H       1  UNL1        0.1500
     24 H           0.3353   -0.7534    1.5481 H       1  UNL1        0.1755
@<TRIPOS>BOND
     1    20    15    1
     2     3     2    2
     3     9     4    1
     4    21    16    1
     5    15    16   ar
     6    15    14   ar
     7    16    17   ar
     8     2    14    1
     9     2     1    1
    10    14    19   ar
    11     8     5    1
    12     4     1    2
    13     4     5    1
    14     1    10    1
    15    17    22    1
    16    17    18   ar
    17     5     6    1
    18     5     7    1
    19    19    18   ar
    20    19    24    1
    21    11    10    1
    22    18    23    1
    23    10    12    1
    24    10    13    1
