@<TRIPOS>MOLECULE
GS-577-0.out
 14 13 0 0 0
SMALL
MULLIKEN_CHARGES
****
Gaussian 16 # wB97XD def2tzvp, opt=(calcfc, maxcycles=70, maxstep=10), freq=norama
@<TRIPOS>ATOM
      1 C          -0.6272    0.3421    0.0026 C.2     1  UNL1       -0.0875
      2 C          -1.3702   -0.9319   -0.0026 C.2     1  UNL1        0.1640
      3 O          -2.5803   -0.9848   -0.0044 O.2     1  UNL1       -0.3844
      4 C           0.7131    0.3682   -0.0005 C.2     1  UNL1        0.1285
      5 C           1.6055    1.5610   -0.0065 C.3     1  UNL1       -0.3352
      6 H           2.2413    1.5505    0.8807 H       1  UNL1        0.1554
      7 H           2.2615    1.5247   -0.8780 H       1  UNL1        0.1548
      8 H           1.0479    2.4921   -0.0278 H       1  UNL1        0.1292
      9 CL          1.6503   -1.1142    0.0030 Cl      1  UNL1       -0.0997
     10 C          -1.4876    1.5727    0.0061 C.3     1  UNL1       -0.3378
     11 H          -2.1695    1.5425    0.8572 H       1  UNL1        0.1396
     12 H          -0.9164    2.4938    0.0578 H       1  UNL1        0.1225
     13 H          -2.1038    1.5984   -0.8942 H       1  UNL1        0.1408
     14 H          -0.7759   -1.8564   -0.0067 H       1  UNL1        0.1100
@<TRIPOS>BOND
     1    13    10    1
     2     7     5    1
     3     8     5    1
     4    14     2    1
     5     5     4    1
     6     5     6    1
     7     3     2    2
     8     2     1    1
     9     4     1    2
    10     4     9    1
    11     1    10    1
    12    10    12    1
    13    10    11    1
