@<TRIPOS>MOLECULE
GS-520-0.out
 24 24 0 0 0
SMALL
MULLIKEN_CHARGES
****
Gaussian 16 # wB97XD def2tzvp, opt=(calcfc, maxcycles=70, maxstep=10), freq=norama
@<TRIPOS>ATOM
      1 C           1.3722   -0.0299   -0.3038 C.2     1  UNL1       -0.0150
      2 C           0.1436    0.7492   -0.6970 C.2     1  UNL1        0.2959
      3 O           0.2464    1.7199   -1.4142 O.2     1  UNL1       -0.3694
      4 C           2.2799    0.3586    0.5844 C.2     1  UNL1        0.0021
      5 C           3.5054   -0.4246    0.9337 C.3     1  UNL1       -0.3497
      6 H           4.3918    0.1951    0.7787 H       1  UNL1        0.1433
      7 H           3.4835   -0.6886    1.9938 H       1  UNL1        0.1448
      8 H           3.6088   -1.3348    0.3490 H       1  UNL1        0.1306
      9 C           2.1130    1.6474    1.3380 C.3     1  UNL1       -0.3466
     10 H           2.1444    1.4482    2.4115 H       1  UNL1        0.1408
     11 H           2.9446    2.3185    1.1111 H       1  UNL1        0.1462
     12 H           1.1840    2.1662    1.1113 H       1  UNL1        0.1416
     13 CL          1.4730   -1.5320   -1.1963 Cl      1  UNL1       -0.1077
     14 C          -1.1725    0.2788   -0.1891 C.ar    1  UNL1        0.0724
     15 C          -2.3392    0.8040   -0.7435 C.ar    1  UNL1       -0.2196
     16 C          -3.5747    0.4034   -0.2695 C.ar    1  UNL1       -0.1209
     17 C          -3.6540   -0.5181    0.7682 C.ar    1  UNL1       -0.1231
     18 C          -2.4971   -1.0406    1.3279 C.ar    1  UNL1       -0.1467
     19 C          -1.2583   -0.6472    0.8479 C.ar    1  UNL1       -0.1960
     20 H          -2.2628    1.5235   -1.5480 H       1  UNL1        0.1486
     21 H          -4.4788    0.8078   -0.7058 H       1  UNL1        0.1508
     22 H          -4.6218   -0.8293    1.1406 H       1  UNL1        0.1529
     23 H          -2.5598   -1.7550    2.1382 H       1  UNL1        0.1505
     24 H          -0.3558   -1.0532    1.2867 H       1  UNL1        0.1742
@<TRIPOS>BOND
     1    20    15    1
     2     3     2    2
     3    13     1    1
     4    15    16   ar
     5    15    14   ar
     6    21    16    1
     7     2     1    1
     8     2    14    1
     9     1     4    2
    10    16    17   ar
    11    14    19   ar
    12     8     5    1
    13     4     5    1
    14     4     9    1
    15    17    22    1
    16    17    18   ar
    17     6     5    1
    18    19    24    1
    19    19    18   ar
    20     5     7    1
    21    11     9    1
    22    12     9    1
    23    18    23    1
    24     9    10    1
