@<TRIPOS>MOLECULE
GS-580-0.out
 18 17 0 0 0
SMALL
MULLIKEN_CHARGES
****
Gaussian 16 # wB97XD def2tzvp, opt=(calcfc, maxcycles=70, maxstep=10), freq=norama
@<TRIPOS>ATOM
      1 C          -0.3515    0.8456    0.0120 C.2     1  UNL1       -0.0956
      2 C           1.0238    0.3339    0.3199 C.2     1  UNL1        0.4162
      3 O           1.5192    0.3700    1.4181 O.2     1  UNL1       -0.4103
      4 C          -1.3822    0.0135   -0.0675 C.2     1  UNL1        0.0576
      5 C          -2.8169    0.3284   -0.3207 C.3     1  UNL1       -0.3463
      6 H          -2.9742    1.3941   -0.4660 H       1  UNL1        0.1268
      7 H          -3.1645   -0.1979   -1.2113 H       1  UNL1        0.1486
      8 H          -3.4294   -0.0021    0.5198 H       1  UNL1        0.1485
      9 CL         -1.1010   -1.7078    0.1604 Cl      1  UNL1       -0.1214
     10 C          -0.4153    2.3386   -0.1327 C.3     1  UNL1       -0.3169
     11 H           0.2281    2.6643   -0.9530 H       1  UNL1        0.1481
     12 H          -1.4225    2.6960   -0.3261 H       1  UNL1        0.1261
     13 H          -0.0498    2.8149    0.7795 H       1  UNL1        0.1483
     14 O           1.6491   -0.1015   -0.7661 O.3     1  UNL1       -0.2641
     15 C           2.9840   -0.5866   -0.5826 C.3     1  UNL1       -0.2007
     16 H           3.6211    0.2000   -0.1808 H       1  UNL1        0.1425
     17 H           2.9845   -1.4402    0.0940 H       1  UNL1        0.1424
     18 H           3.3256   -0.8851   -1.5688 H       1  UNL1        0.1502
@<TRIPOS>BOND
     1    18    15    1
     2     7     5    1
     3    11    10    1
     4    14    15    1
     5    14     2    1
     6    15    16    1
     7    15    17    1
     8     6     5    1
     9    12    10    1
    10     5     4    1
    11     5     8    1
    12    10     1    1
    13    10    13    1
    14     4     1    2
    15     4     9    1
    16     1     2    1
    17     2     3    2
