@<TRIPOS>MOLECULE
GS-517-1.out
 19 18 0 0 0
SMALL
MULLIKEN_CHARGES
****
Gaussian 16 # wB97XD def2tzvp, opt=(calcfc, maxcycles=70, maxstep=1), freq=noraman
@<TRIPOS>ATOM
      1 C          -0.4230    0.1753   -0.0774 C.2     1  UNL1       -0.0854
      2 C           0.9530   -0.4190   -0.1816 C.2     1  UNL1        0.3888
      3 O           1.1405   -1.5082   -0.7109 O.2     1  UNL1       -0.4898
      4 C          -1.5529   -0.5190    0.0808 C.2     1  UNL1        0.0505
      5 C          -2.9064    0.1197    0.1541 C.3     1  UNL1       -0.3621
      6 H          -3.6323   -0.5059   -0.3680 H       1  UNL1        0.1430
      7 H          -3.2268    0.1758    1.1983 H       1  UNL1        0.1548
      8 H          -2.9330    1.1213   -0.2659 H       1  UNL1        0.1352
      9 C          -1.5824   -2.0114    0.2429 C.3     1  UNL1       -0.3576
     10 H          -2.2953   -2.2638    1.0308 H       1  UNL1        0.1378
     11 H          -1.9495   -2.4707   -0.6786 H       1  UNL1        0.1470
     12 H          -0.6142   -2.4417    0.4733 H       1  UNL1        0.1404
     13 CL         -0.4629    1.9323   -0.1606 Cl      1  UNL1       -0.1311
     14 N           1.9572    0.3017    0.3399 N.am    1  UNL1       -0.3047
     15 C           3.3262   -0.1593    0.2896 C.3     1  UNL1       -0.2517
     16 H           1.7571    1.1906    0.7617 H       1  UNL1        0.2640
     17 H           3.9649    0.6025    0.7294 H       1  UNL1        0.1477
     18 H           3.4476   -1.0897    0.8466 H       1  UNL1        0.1366
     19 H           3.6385   -0.3334   -0.7411 H       1  UNL1        0.1368
@<TRIPOS>BOND
     1    19    15    1
     2     3     2    2
     3    11     9    1
     4     6     5    1
     5     8     5    1
     6     2     1    1
     7     2    14   am
     8    13     1    1
     9     1     4    2
    10     4     5    1
    11     4     9    1
    12     5     7    1
    13     9    12    1
    14     9    10    1
    15    15    14    1
    16    15    17    1
    17    15    18    1
    18    14    16    1
