@<TRIPOS>MOLECULE
GS-56-0.out
 28 29 0 0 0
SMALL
MULLIKEN_CHARGES
****
Gaussian 16 # wB97XD def2tzvp, opt=(calcfc, maxcycles=70, maxstep=10), freq=norama
@<TRIPOS>ATOM
      1 C           0.0768   -0.2319   -0.0585 C.2     1  UNL1       -0.1931
      2 C          -1.1846   -0.9977    0.0327 C.2     1  UNL1        0.3429
      3 O          -1.1931   -2.2150    0.1038 O.2     1  UNL1       -0.4267
      4 C           1.2556   -0.8423    0.0910 C.2     1  UNL1       -0.1564
      5 C           2.5847   -0.2372    0.0159 C.ar    1  UNL1        0.2343
      6 C           2.7911    1.1179   -0.2608 C.ar    1  UNL1       -0.2208
      7 C           4.0715    1.6367   -0.3181 C.ar    1  UNL1       -0.1433
      8 C           5.1716    0.8148   -0.1007 C.ar    1  UNL1       -0.1282
      9 C           4.9825   -0.5309    0.1737 C.ar    1  UNL1       -0.1427
     10 C           3.6989   -1.0507    0.2306 C.ar    1  UNL1       -0.2214
     11 H           1.9483    1.7744   -0.4339 H       1  UNL1        0.1405
     12 H           4.2155    2.6877   -0.5335 H       1  UNL1        0.1474
     13 H           6.1722    1.2253   -0.1463 H       1  UNL1        0.1500
     14 H           5.8341   -1.1770    0.3436 H       1  UNL1        0.1473
     15 H           3.5530   -2.1028    0.4449 H       1  UNL1        0.1461
     16 H           1.2361   -1.9092    0.2950 H       1  UNL1        0.1409
     17 H           0.0148    0.8275   -0.2639 H       1  UNL1        0.1614
     18 C          -2.4744   -0.2401    0.0178 C.ar    1  UNL1        0.1261
     19 C          -3.6355   -0.9140   -0.3588 C.ar    1  UNL1       -0.2143
     20 C          -4.8543   -0.2596   -0.3720 C.ar    1  UNL1       -0.1287
     21 C          -4.9296    1.0743    0.0094 C.ar    1  UNL1       -0.1267
     22 C          -3.7824    1.7497    0.3982 C.ar    1  UNL1       -0.1448
     23 C          -2.5580    1.0989    0.3943 C.ar    1  UNL1       -0.2360
     24 H          -3.5668   -1.9549   -0.6461 H       1  UNL1        0.1468
     25 H          -5.7481   -0.7879   -0.6777 H       1  UNL1        0.1480
     26 H          -5.8835    1.5863    0.0041 H       1  UNL1        0.1506
     27 H          -3.8392    2.7860    0.7048 H       1  UNL1        0.1485
     28 H          -1.6755    1.6387    0.7109 H       1  UNL1        0.1524
@<TRIPOS>BOND
     1    25    20    1
     2    24    19    1
     3    12     7    1
     4    11     6    1
     5    20    19   ar
     6    20    21   ar
     7    19    18   ar
     8     7     6   ar
     9     7     8   ar
    10    17     1    1
    11     6     5   ar
    12    13     8    1
    13     8     9   ar
    14     1     2    1
    15     1     4    2
    16    26    21    1
    17    21    22   ar
    18     5     4    1
    19     5    10   ar
    20    18     2    1
    21    18    23   ar
    22     2     3    2
    23     4    16    1
    24     9    10   ar
    25     9    14    1
    26    10    15    1
    27    23    22   ar
    28    23    28    1
    29    22    27    1
