@<TRIPOS>MOLECULE
GS-542-0.out
 22 21 0 0 0
SMALL
MULLIKEN_CHARGES
****
Gaussian 16 # wb97xd def2tzvp opt=(calcfc, maxcycles=100, maxstep=10) freq=noraman
@<TRIPOS>ATOM
      1 C          -0.0430    1.2132   -0.1463 C.2     1  UNL1       -0.1350
      2 C          -1.1923    0.3525   -0.6088 C.2     1  UNL1        0.3368
      3 O          -1.4187    0.2732   -1.8125 O.2     1  UNL1       -0.4948
      4 C           1.1702    0.7189    0.0595 C.2     1  UNL1        0.0075
      5 C           2.4261    1.4375    0.4225 C.3     1  UNL1       -0.3483
      6 H           2.2617    2.5095    0.5042 H       1  UNL1        0.1269
      7 H           2.8105    1.0742    1.3772 H       1  UNL1        0.1485
      8 H           3.1962    1.2639   -0.3310 H       1  UNL1        0.1482
      9 BR          1.4377   -1.1775   -0.0978 Br      1  UNL1       -0.1127
     10 C          -0.4078    2.6678   -0.0512 C.3     1  UNL1       -0.3178
     11 H          -0.8090    3.0081   -1.0080 H       1  UNL1        0.1482
     12 H          -1.1921    2.8068    0.6974 H       1  UNL1        0.1474
     13 H           0.4334    3.3011    0.2151 H       1  UNL1        0.1256
     14 N          -1.9572   -0.2320    0.3309 N.am    1  UNL1       -0.1038
     15 C          -3.0848   -1.0547   -0.0577 C.3     1  UNL1       -0.2758
     16 C          -1.6946   -0.1737    1.7541 C.3     1  UNL1       -0.2974
     17 H          -3.2289   -0.9869   -1.1311 H       1  UNL1        0.1503
     18 H          -2.9034   -2.0964    0.2184 H       1  UNL1        0.1400
     19 H          -3.9860   -0.7116    0.4539 H       1  UNL1        0.1408
     20 H          -0.8612    0.4885    1.9670 H       1  UNL1        0.1700
     21 H          -2.5797    0.1935    2.2772 H       1  UNL1        0.1486
     22 H          -1.4547   -1.1697    2.1343 H       1  UNL1        0.1467
@<TRIPOS>BOND
     1     3     2    2
     2    17    15    1
     3    11    10    1
     4     2     1    1
     5     2    14   am
     6     8     5    1
     7     1    10    1
     8     1     4    2
     9     9     4    1
    10    15    18    1
    11    15    14    1
    12    15    19    1
    13    10    13    1
    14    10    12    1
    15     4     5    1
    16    14    16    1
    17     5     6    1
    18     5     7    1
    19    16    20    1
    20    16    22    1
    21    16    21    1
