@<TRIPOS>MOLECULE
GS-545-0.out
 11 10 0 0 0
SMALL
MULLIKEN_CHARGES
****
Gaussian 16 # wB97XD def2tzvp, opt=(calcfc, maxcycles=70, maxstep=10), freq=norama
@<TRIPOS>ATOM
      1 C           0.4440    0.2566   -0.0000 C.2     1  UNL1       -0.0837
      2 C           0.3607    1.7318   -0.0000 C.2     1  UNL1        0.1446
      3 O           1.3169    2.4643    0.0000 O.2     1  UNL1       -0.3496
      4 C          -0.6047   -0.5753   -0.0000 C.2     1  UNL1        0.0904
      5 C          -0.5883   -2.0619   -0.0000 C.3     1  UNL1       -0.3334
      6 H           0.4258   -2.4507   -0.0000 H       1  UNL1        0.1509
      7 H          -1.1166   -2.4333    0.8797 H       1  UNL1        0.1638
      8 H          -1.1166   -2.4333   -0.8797 H       1  UNL1        0.1638
      9 BR         -2.3766    0.1195    0.0000 Br      1  UNL1       -0.0325
     10 BR          2.2127   -0.4234    0.0000 Br      1  UNL1       -0.0489
     11 H          -0.6624    2.1326   -0.0000 H       1  UNL1        0.1346
@<TRIPOS>BOND
     1     8     5    1
     2     6     5    1
     3    11     2    1
     4     1     2    1
     5     1     4    2
     6     1    10    1
     7     2     3    2
     8     4     5    1
     9     4     9    1
    10     5     7    1
