@<TRIPOS>MOLECULE
GS-589-1.out
 16 15 0 0 0
SMALL
MULLIKEN_CHARGES
****
Gaussian 16 # wB97XD def2tzvp, opt=(calcfc, maxcycles=70, maxstep=1), freq=noraman
@<TRIPOS>ATOM
      1 C           0.2312    0.0921    0.0653 C.2     1  UNL1       -0.1236
      2 C          -1.0661   -0.6151    0.3662 C.2     1  UNL1        0.3655
      3 O          -1.3344   -0.9822    1.4995 O.2     1  UNL1       -0.4647
      4 C           0.3797    1.4055   -0.0474 C.2     1  UNL1        0.0631
      5 C           1.6215    2.1889   -0.2863 C.3     1  UNL1       -0.3405
      6 H           2.4848    1.5362   -0.3873 H       1  UNL1        0.1441
      7 H           1.5154    2.7822   -1.1957 H       1  UNL1        0.1547
      8 H           1.7909    2.8772    0.5432 H       1  UNL1        0.1549
      9 CL         -1.0522    2.3955    0.1173 Cl      1  UNL1       -0.0864
     10 BR          1.6998   -1.0968   -0.0547 Br      1  UNL1       -0.0358
     11 N          -1.8512   -0.8238   -0.6951 N.am    1  UNL1       -0.3000
     12 C          -3.1344   -1.4839   -0.5820 C.3     1  UNL1       -0.2526
     13 H          -1.5602   -0.4647   -1.5874 H       1  UNL1        0.2863
     14 H          -3.5501   -1.6070   -1.5784 H       1  UNL1        0.1517
     15 H          -3.0185   -2.4644   -0.1200 H       1  UNL1        0.1417
     16 H          -3.8251   -0.8941    0.0228 H       1  UNL1        0.1415
@<TRIPOS>BOND
     1    13    11    1
     2    14    12    1
     3     7     5    1
     4    11    12    1
     5    11     2   am
     6    12    15    1
     7    12    16    1
     8     6     5    1
     9     5     4    1
    10     5     8    1
    11    10     1    1
    12     4     1    2
    13     4     9    1
    14     1     2    1
    15     2     3    2
