@<TRIPOS>MOLECULE
GS-59-1.out
 23 23 0 0 0
SMALL
MULLIKEN_CHARGES
****
Gaussian 16 # wB97XD def2tzvp, opt=(maxcycles=70, maxstep=1), freq=noraman, scrf=(
@<TRIPOS>ATOM
      1 C          -1.4606    0.3104   -0.0679 C.2     1  UNL1        0.0688
      2 C          -2.8799   -0.1845   -0.0198 C.2     1  UNL1        0.3101
      3 O          -3.7353    0.2588   -0.7761 O.2     1  UNL1       -0.4795
      4 C          -0.4626   -0.5617    0.1124 C.2     1  UNL1       -0.2596
      5 C           0.9845   -0.2986    0.0720 C.ar    1  UNL1        0.2149
      6 C           1.8281   -1.2665   -0.4782 C.ar    1  UNL1       -0.2338
      7 C           3.1973   -1.0673   -0.5372 C.ar    1  UNL1       -0.1444
      8 C           3.7532    0.0978   -0.0263 C.ar    1  UNL1       -0.1413
      9 C           2.9301    1.0555    0.5481 C.ar    1  UNL1       -0.1348
     10 C           1.5584    0.8600    0.5976 C.ar    1  UNL1       -0.2683
     11 H           1.4002   -2.1821   -0.8697 H       1  UNL1        0.1414
     12 H           3.8330   -1.8252   -0.9774 H       1  UNL1        0.1446
     13 H           4.8239    0.2532   -0.0659 H       1  UNL1        0.1466
     14 H           3.3576    1.9580    0.9664 H       1  UNL1        0.1447
     15 H           0.9321    1.6039    1.0715 H       1  UNL1        0.1758
     16 H          -0.7207   -1.6065    0.2581 H       1  UNL1        0.1641
     17 C          -1.3124    1.7567   -0.4309 C.3     1  UNL1       -0.4117
     18 H          -2.0967    2.0313   -1.1354 H       1  UNL1        0.1439
     19 H          -1.4243    2.3969    0.4480 H       1  UNL1        0.1478
     20 H          -0.3423    1.9639   -0.8788 H       1  UNL1        0.1528
     21 N          -3.1575   -1.1395    0.8894 N.am    1  UNL1       -0.4533
     22 H          -4.0957   -1.4957    0.9475 H       1  UNL1        0.2777
     23 H          -2.4995   -1.4028    1.5992 H       1  UNL1        0.2933
@<TRIPOS>BOND
     1    18    17    1
     2    12     7    1
     3    20    17    1
     4    11     6    1
     5     3     2    2
     6     7     6   ar
     7     7     8   ar
     8     6     5   ar
     9    17     1    1
    10    17    19    1
    11     1     2    1
    12     1     4    2
    13    13     8    1
    14     8     9   ar
    15     2    21   am
    16     5     4    1
    17     5    10   ar
    18     4    16    1
    19     9    10   ar
    20     9    14    1
    21    10    15    1
    22    21    22    1
    23    21    23    1
