@<TRIPOS>MOLECULE
GS-598-0.out
 19 18 0 0 0
SMALL
MULLIKEN_CHARGES
****
Gaussian 16 # wB97XD def2tzvp, opt=(calcfc, maxcycles=70, maxstep=10), freq=norama
@<TRIPOS>ATOM
      1 C          -0.5085    0.5193   -0.1429 C.2     1  UNL1       -0.0661
      2 C           0.8974    0.2335   -0.6140 C.2     1  UNL1        0.3133
      3 O           1.1397    0.3310   -1.8100 O.2     1  UNL1       -0.4766
      4 C          -1.4666   -0.3851    0.0082 C.2     1  UNL1        0.0425
      5 C          -2.8950   -0.1703    0.3615 C.3     1  UNL1       -0.3440
      6 H          -3.1113    0.8881    0.4842 H       1  UNL1        0.1404
      7 H          -3.5377   -0.5760   -0.4213 H       1  UNL1        0.1541
      8 H          -3.1310   -0.6912    1.2908 H       1  UNL1        0.1551
      9 CL         -1.0250   -2.0586   -0.2184 Cl      1  UNL1       -0.0894
     10 CL         -0.8164    2.2150    0.0638 Cl      1  UNL1       -0.0741
     11 N           1.8064   -0.0827    0.3207 N.am    1  UNL1       -0.0995
     12 C           1.5296   -0.2017    1.7386 C.3     1  UNL1       -0.2899
     13 C           3.1712   -0.3774   -0.0709 C.3     1  UNL1       -0.2755
     14 H           0.5115    0.0996    1.9642 H       1  UNL1        0.1703
     15 H           1.6712   -1.2349    2.0628 H       1  UNL1        0.1492
     16 H           2.2153    0.4367    2.2984 H       1  UNL1        0.1487
     17 H           3.2729   -0.2604   -1.1447 H       1  UNL1        0.1526
     18 H           3.8570    0.3031    0.4370 H       1  UNL1        0.1453
     19 H           3.4239   -1.4021    0.2095 H       1  UNL1        0.1435
@<TRIPOS>BOND
     1     3     2    2
     2    17    13    1
     3     2     1    1
     4     2    11   am
     5     7     5    1
     6     9     4    1
     7     1     4    2
     8     1    10    1
     9    13    19    1
    10    13    11    1
    11    13    18    1
    12     4     5    1
    13    11    12    1
    14     5     6    1
    15     5     8    1
    16    12    14    1
    17    12    15    1
    18    12    16    1
