@<TRIPOS>MOLECULE
GS-52-0.out
 22 22 0 0 0
SMALL
MULLIKEN_CHARGES
****
Gaussian 16 # wB97XD def2tzvp, opt=(maxcycles=50, maxstep=10), freq=noraman, geom=
@<TRIPOS>ATOM
      1 C           1.0796   -0.3085    0.0002 C.2     1  UNL1       -0.2072
      2 C           2.4618    0.2030    0.0001 C.2     1  UNL1        0.4356
      3 O           2.7872    1.3681    0.0001 O.2     1  UNL1       -0.4387
      4 C           0.0468    0.5345   -0.0001 C.2     1  UNL1       -0.1394
      5 C          -1.3766    0.1940   -0.0001 C.ar    1  UNL1        0.2314
      6 C          -1.8449   -1.1231   -0.0001 C.ar    1  UNL1       -0.2211
      7 C          -3.2024   -1.3867   -0.0000 C.ar    1  UNL1       -0.1404
      8 C          -4.1195   -0.3419    0.0001 C.ar    1  UNL1       -0.1326
      9 C          -3.6694    0.9693    0.0000 C.ar    1  UNL1       -0.1379
     10 C          -2.3086    1.2330   -0.0000 C.ar    1  UNL1       -0.2218
     11 H          -1.1472   -1.9506   -0.0002 H       1  UNL1        0.1426
     12 H          -3.5500   -2.4118   -0.0000 H       1  UNL1        0.1475
     13 H          -5.1813   -0.5526    0.0001 H       1  UNL1        0.1498
     14 H          -4.3772    1.7882    0.0000 H       1  UNL1        0.1474
     15 H          -1.9588    2.2586   -0.0001 H       1  UNL1        0.1458
     16 H           0.2751    1.5964   -0.0003 H       1  UNL1        0.1463
     17 H           0.9640   -1.3841    0.0005 H       1  UNL1        0.1495
     18 O           3.3421   -0.8018   -0.0001 O.3     1  UNL1       -0.2820
     19 C           4.7227   -0.4381   -0.0000 C.3     1  UNL1       -0.1984
     20 H           5.2746   -1.3735    0.0010 H       1  UNL1        0.1472
     21 H           4.9649    0.1422   -0.8898 H       1  UNL1        0.1384
     22 H           4.9645    0.1439    0.8887 H       1  UNL1        0.1383
@<TRIPOS>BOND
     1    21    19    1
     2    16     4    1
     3    11     6    1
     4     4     5    1
     5     4     1    2
     6    18    19    1
     7    18     2    1
     8     5     6   ar
     9     5    10   ar
    10     6     7   ar
    11    15    10    1
    12    19    20    1
    13    19    22    1
    14    10     9   ar
    15    12     7    1
    16     7     8   ar
    17     9    14    1
    18     9     8   ar
    19     8    13    1
    20     2     3    2
    21     2     1    1
    22     1    17    1
