@<TRIPOS>MOLECULE
GS-503-0.out
 29 29 0 0 0
SMALL
MULLIKEN_CHARGES
****
Gaussian 16 # wB97XD def2tzvp, opt=(calcfc, maxcycles=70, maxstep=10), freq=norama
@<TRIPOS>ATOM
      1 C          -2.2086    0.4706   -0.2450 C.2     1  UNL1       -0.1015
      2 C          -0.7895    0.8058    0.1255 C.2     1  UNL1        0.3872
      3 O          -0.5131    1.8105    0.7618 O.2     1  UNL1       -0.4744
      4 C          -2.8100   -0.6207    0.2390 C.2     1  UNL1        0.0160
      5 C          -4.2279   -1.0045   -0.0765 C.3     1  UNL1       -0.3619
      6 H          -4.2655   -2.0575   -0.3671 H       1  UNL1        0.1334
      7 H          -4.8512   -0.9036    0.8163 H       1  UNL1        0.1410
      8 H          -4.6770   -0.4189   -0.8739 H       1  UNL1        0.1191
      9 C          -2.1454   -1.5816    1.1894 C.3     1  UNL1       -0.3874
     10 H          -1.9828   -2.5475    0.7028 H       1  UNL1        0.1451
     11 H          -1.1911   -1.2290    1.5751 H       1  UNL1        0.1374
     12 H          -2.8057   -1.7668    2.0401 H       1  UNL1        0.1369
     13 C          -2.8252    1.5222   -1.1259 C.3     1  UNL1       -0.3477
     14 H          -2.7548    2.4979   -0.6409 H       1  UNL1        0.1383
     15 H          -2.2874    1.5959   -2.0750 H       1  UNL1        0.1367
     16 H          -3.8718    1.3290   -1.3434 H       1  UNL1        0.1168
     17 N           0.1347   -0.0695   -0.3565 N.am    1  UNL1       -0.2675
     18 C           1.5298   -0.0831   -0.1960 C.ar    1  UNL1        0.3115
     19 C           2.2221   -1.1549   -0.7627 C.ar    1  UNL1       -0.3024
     20 C           3.5976   -1.2400   -0.6494 C.ar    1  UNL1       -0.0981
     21 C           4.3075   -0.2596    0.0311 C.ar    1  UNL1       -0.1865
     22 C           3.6193    0.8034    0.5934 C.ar    1  UNL1       -0.1092
     23 C           2.2385    0.9032    0.4873 C.ar    1  UNL1       -0.2964
     24 H          -0.2471   -0.8413   -0.8785 H       1  UNL1        0.2730
     25 H           1.6760   -1.9255   -1.2942 H       1  UNL1        0.1448
     26 H           4.1162   -2.0789   -1.0958 H       1  UNL1        0.1461
     27 H           5.3839   -0.3254    0.1204 H       1  UNL1        0.1433
     28 H           4.1595    1.5756    1.1268 H       1  UNL1        0.1443
     29 H           1.7120    1.7342    0.9269 H       1  UNL1        0.1620
@<TRIPOS>BOND
     1    15    13    1
     2    16    13    1
     3    25    19    1
     4    13    14    1
     5    13     1    1
     6    26    20    1
     7    24    17    1
     8     8     5    1
     9    19    20   ar
    10    19    18   ar
    11    20    21   ar
    12     6     5    1
    13    17    18    1
    14    17     2   am
    15     1     2    1
    16     1     4    2
    17    18    23   ar
    18     5     4    1
    19     5     7    1
    20    21    27    1
    21    21    22   ar
    22     2     3    2
    23     4     9    1
    24    23    22   ar
    25    23    29    1
    26    22    28    1
    27    10     9    1
    28     9    11    1
    29     9    12    1
