@<TRIPOS>MOLECULE
GS-543-1.out
 26 26 0 0 0
SMALL
MULLIKEN_CHARGES
****
Gaussian 16 # wB97XD def2tzvp, opt=(calcfc, maxcycles=70, maxstep=1), freq=noraman
@<TRIPOS>ATOM
      1 C           1.5937    1.2470    0.1878 C.2     1  UNL1       -0.1391
      2 C           0.2123    1.0699   -0.3905 C.2     1  UNL1        0.4356
      3 O          -0.0468    1.4545   -1.5168 O.2     1  UNL1       -0.4580
      4 C           2.4603    0.2444    0.2638 C.2     1  UNL1        0.0117
      5 C           3.8675    0.2671    0.7590 C.3     1  UNL1       -0.3501
      6 H           4.1472    1.2533    1.1218 H       1  UNL1        0.1281
      7 H           3.9933   -0.4480    1.5734 H       1  UNL1        0.1501
      8 H           4.5560   -0.0165   -0.0388 H       1  UNL1        0.1508
      9 BR          1.9411   -1.5003   -0.3506 Br      1  UNL1       -0.1049
     10 C           1.8787    2.6684    0.5845 C.3     1  UNL1       -0.3272
     11 H           2.8884    2.8093    0.9584 H       1  UNL1        0.1243
     12 H           1.7357    3.3217   -0.2785 H       1  UNL1        0.1503
     13 H           1.1769    2.9902    1.3575 H       1  UNL1        0.1471
     14 N          -0.6787    0.5242    0.4735 N.am    1  UNL1       -0.2665
     15 C          -2.0355    0.2121    0.2788 C.ar    1  UNL1        0.3088
     16 C          -2.6921   -0.4357    1.3258 C.ar    1  UNL1       -0.2984
     17 C          -4.0282   -0.7732    1.2111 C.ar    1  UNL1       -0.0978
     18 C          -4.7307   -0.4717    0.0519 C.ar    1  UNL1       -0.1846
     19 C          -4.0764    0.1714   -0.9864 C.ar    1  UNL1       -0.1084
     20 C          -2.7357    0.5175   -0.8860 C.ar    1  UNL1       -0.2939
     21 H          -0.2969    0.2485    1.3642 H       1  UNL1        0.2758
     22 H          -2.1502   -0.6754    2.2332 H       1  UNL1        0.1463
     23 H          -4.5215   -1.2757    2.0334 H       1  UNL1        0.1470
     24 H          -5.7761   -0.7360   -0.0386 H       1  UNL1        0.1442
     25 H          -4.6120    0.4128   -1.8960 H       1  UNL1        0.1453
     26 H          -2.2353    1.0175   -1.6989 H       1  UNL1        0.1635
@<TRIPOS>BOND
     1    25    19    1
     2    26    20    1
     3     3     2    2
     4    19    20   ar
     5    19    18   ar
     6    20    15   ar
     7     2     1    1
     8     2    14   am
     9     9     4    1
    10    12    10    1
    11     8     5    1
    12    24    18    1
    13    18    17   ar
    14     1     4    2
    15     1    10    1
    16     4     5    1
    17    15    14    1
    18    15    16   ar
    19    14    21    1
    20    10    11    1
    21    10    13    1
    22     5     6    1
    23     5     7    1
    24    17    16   ar
    25    17    23    1
    26    16    22    1
