@<TRIPOS>MOLECULE
GS-612-0.out
 22 22 0 0 0
SMALL
MULLIKEN_CHARGES
****
Gaussian 16 # wB97XD def2tzvp, opt=(calcfc, maxcycles=70, maxstep=10), freq=norama
@<TRIPOS>ATOM
      1 C          -1.2354   -0.8779   -0.0331 C.2     1  UNL1       -0.2970
      2 C          -2.2090    0.2306   -0.1702 C.2     1  UNL1        0.4446
      3 O          -1.9703    1.3740   -0.4697 O.2     1  UNL1       -0.4154
      4 C           0.0829   -0.7122    0.0001 C.2     1  UNL1        0.0525
      5 BR          1.1683   -2.2774    0.0905 Br      1  UNL1       -0.0538
      6 C           0.8453    0.5514    0.0127 C.ar    1  UNL1        0.2572
      7 C           0.7961    1.3729    1.1343 C.ar    1  UNL1       -0.2382
      8 C           1.5151    2.5570    1.1588 C.ar    1  UNL1       -0.1279
      9 C           2.2833    2.9281    0.0646 C.ar    1  UNL1       -0.1408
     10 C           2.3374    2.1071   -1.0534 C.ar    1  UNL1       -0.1372
     11 C           1.6288    0.9171   -1.0777 C.ar    1  UNL1       -0.2271
     12 H           0.1911    1.0830    1.9840 H       1  UNL1        0.1554
     13 H           1.4738    3.1915    2.0348 H       1  UNL1        0.1478
     14 H           2.8424    3.8547    0.0838 H       1  UNL1        0.1492
     15 H           2.9355    2.3926   -1.9091 H       1  UNL1        0.1480
     16 H           1.6758    0.2740   -1.9477 H       1  UNL1        0.1534
     17 H          -1.6631   -1.8687    0.0277 H       1  UNL1        0.1729
     18 O          -3.4398   -0.2273    0.0682 O.3     1  UNL1       -0.2750
     19 C          -4.5022    0.7218   -0.0415 C.3     1  UNL1       -0.1985
     20 H          -5.4113    0.1728    0.1840 H       1  UNL1        0.1491
     21 H          -4.3628    1.5331    0.6719 H       1  UNL1        0.1402
     22 H          -4.5458    1.1285   -1.0512 H       1  UNL1        0.1408
@<TRIPOS>BOND
     1    16    11    1
     2    15    10    1
     3    11    10   ar
     4    11     6   ar
     5    10     9   ar
     6    22    19    1
     7     3     2    2
     8     2     1    1
     9     2    18    1
    10    19    18    1
    11    19    20    1
    12    19    21    1
    13     1     4    2
    14     1    17    1
    15     4     6    1
    16     4     5    1
    17     6     7   ar
    18     9    14    1
    19     9     8   ar
    20     7     8   ar
    21     7    12    1
    22     8    13    1
