@<TRIPOS>MOLECULE
GS-693-0.out
 16 15 0 0 0
SMALL
MULLIKEN_CHARGES
****
Gaussian 16 # wB97XD def2tzvp, opt=(calcfc, maxcycles=70, maxstep=10), freq=norama
@<TRIPOS>ATOM
      1 C           0.4452   -0.3423   -0.0000 C.2     1  UNL1       -0.3133
      2 C           1.8572    0.1361   -0.0000 C.2     1  UNL1        0.4324
      3 O           2.2034    1.3130   -0.0001 O.2     1  UNL1       -0.5106
      4 C          -0.6335    0.4340    0.0000 C.2     1  UNL1        0.0843
      5 BR         -2.3334   -0.4456   -0.0000 Br      1  UNL1       -0.0917
      6 C          -0.7391    1.9171    0.0000 C.3     1  UNL1       -0.3477
      7 H           0.2539    2.3570    0.0000 H       1  UNL1        0.1575
      8 H          -1.2920    2.2514   -0.8798 H       1  UNL1        0.1482
      9 H          -1.2919    2.2513    0.8800 H       1  UNL1        0.1482
     10 H           0.3099   -1.4163   -0.0000 H       1  UNL1        0.1608
     11 N           2.7578   -0.8652    0.0000 N.am    1  UNL1       -0.3116
     12 C           4.1810   -0.6139   -0.0000 C.3     1  UNL1       -0.2507
     13 H           2.4372   -1.8164    0.0001 H       1  UNL1        0.2725
     14 H           4.4771   -0.0476    0.8844 H       1  UNL1        0.1369
     15 H           4.7019   -1.5681    0.0002 H       1  UNL1        0.1480
     16 H           4.4772   -0.0479   -0.8846 H       1  UNL1        0.1369
@<TRIPOS>BOND
     1    16    12    1
     2     8     6    1
     3     3     2    2
     4    10     1    1
     5     5     4    1
     6     2     1    1
     7     2    11   am
     8     1     4    2
     9    12    11    1
    10    12    15    1
    11    12    14    1
    12     7     6    1
    13     4     6    1
    14    11    13    1
    15     6     9    1
