@<TRIPOS>MOLECULE
GS-618-1.out
 24 24 0 0 0
SMALL
MULLIKEN_CHARGES
****
Gaussian 16 # wB97XD def2tzvp, opt=(calcfc, maxcycles=70, maxstep=1), freq=noraman
@<TRIPOS>ATOM
      1 C          -1.2172    1.0822    0.0573 C.2     1  UNL1       -0.0312
      2 C          -0.3879    2.3422    0.1554 C.2     1  UNL1        0.2528
      3 O          -0.6548    3.2790   -0.5642 O.2     1  UNL1       -0.3836
      4 C          -0.6131   -0.1040    0.0006 C.2     1  UNL1       -0.0552
      5 BR         -1.6300   -1.7242   -0.0814 Br      1  UNL1       -0.0846
      6 C           0.8462   -0.3251   -0.0682 C.ar    1  UNL1        0.2220
      7 C           1.5102   -1.0662    0.9083 C.ar    1  UNL1       -0.2053
      8 C           2.8844   -1.2166    0.8544 C.ar    1  UNL1       -0.1383
      9 C           3.6099   -0.6444   -0.1837 C.ar    1  UNL1       -0.1349
     10 C           2.9536    0.0754   -1.1695 C.ar    1  UNL1       -0.1295
     11 C           1.5766    0.2331   -1.1138 C.ar    1  UNL1       -0.2531
     12 H           0.9476   -1.5111    1.7196 H       1  UNL1        0.1556
     13 H           3.3934   -1.7804    1.6255 H       1  UNL1        0.1483
     14 H           4.6847   -0.7659   -0.2248 H       1  UNL1        0.1498
     15 H           3.5114    0.5150   -1.9863 H       1  UNL1        0.1488
     16 H           1.0623    0.7921   -1.8856 H       1  UNL1        0.1641
     17 C          -2.6911    1.3388   -0.0049 C.3     1  UNL1       -0.3471
     18 H          -2.8979    2.0518   -0.8037 H       1  UNL1        0.1466
     19 H          -3.2578    0.4294   -0.1830 H       1  UNL1        0.1373
     20 H          -3.0370    1.7884    0.9288 H       1  UNL1        0.1465
     21 C           0.6922    2.4604    1.2015 C.3     1  UNL1       -0.3806
     22 H           0.5417    3.4022    1.7298 H       1  UNL1        0.1613
     23 H           0.6913    1.6343    1.9075 H       1  UNL1        0.1494
     24 H           1.6656    2.5060    0.7110 H       1  UNL1        0.1609
@<TRIPOS>BOND
     1    15    10    1
     2    16    11    1
     3    10    11   ar
     4    10     9   ar
     5    11     6   ar
     6    18    17    1
     7     3     2    2
     8    14     9    1
     9     9     8   ar
    10    19    17    1
    11     5     4    1
    12     6     4    1
    13     6     7   ar
    14    17     1    1
    15    17    20    1
    16     4     1    2
    17     1     2    1
    18     2    21    1
    19    24    21    1
    20     8     7   ar
    21     8    13    1
    22     7    12    1
    23    21    22    1
    24    21    23    1
