@<TRIPOS>MOLECULE
GS-663-0.out
 23 23 0 0 0
SMALL
MULLIKEN_CHARGES
****
Gaussian 16 # wB97XD def2tzvp, opt=(calcfc, maxcycles=70, maxstep=10), freq=norama
@<TRIPOS>ATOM
      1 C          -1.2157    0.2749    0.0001 C.2     1  UNL1       -0.1180
      2 C           0.1390   -0.3970    0.0000 C.2     1  UNL1        0.4219
      3 O           0.2607   -1.6111   -0.0001 O.2     1  UNL1       -0.4851
      4 C          -2.2393   -0.5709   -0.0000 C.2     1  UNL1       -0.0735
      5 BR         -4.0537   -0.0832   -0.0000 Br      1  UNL1       -0.0520
      6 H          -2.0879   -1.6396   -0.0001 H       1  UNL1        0.1868
      7 C          -1.3266    1.7682    0.0002 C.3     1  UNL1       -0.4251
      8 H          -0.8531    2.1996    0.8853 H       1  UNL1        0.1621
      9 H          -0.8531    2.1997   -0.8849 H       1  UNL1        0.1621
     10 H          -2.3675    2.0811    0.0002 H       1  UNL1        0.1487
     11 N           1.1902    0.4632    0.0001 N.am    1  UNL1       -0.2541
     12 C           2.5683    0.1846    0.0000 C.ar    1  UNL1        0.2971
     13 C           3.4292    1.2839   -0.0001 C.ar    1  UNL1       -0.3012
     14 C           4.7995    1.1017   -0.0001 C.ar    1  UNL1       -0.0998
     15 C           5.3363   -0.1790   -0.0001 C.ar    1  UNL1       -0.1850
     16 C           4.4810   -1.2688    0.0001 C.ar    1  UNL1       -0.1080
     17 C           3.1025   -1.1021    0.0001 C.ar    1  UNL1       -0.2894
     18 H           0.9680    1.4439    0.0001 H       1  UNL1        0.2621
     19 H           3.0193    2.2873   -0.0002 H       1  UNL1        0.1472
     20 H           5.4503    1.9668   -0.0003 H       1  UNL1        0.1471
     21 H           6.4087   -0.3232   -0.0001 H       1  UNL1        0.1442
     22 H           4.8854   -2.2733    0.0002 H       1  UNL1        0.1451
     23 H           2.4470   -1.9566    0.0002 H       1  UNL1        0.1665
@<TRIPOS>BOND
     1     9     7    1
     2    20    14    1
     3    19    13    1
     4    14    13   ar
     5    14    15   ar
     6     6     4    1
     7    13    12   ar
     8    21    15    1
     9     3     2    2
    10    15    16   ar
    11     4     5    1
    12     4     1    2
    13     2     1    1
    14     2    11   am
    15    12    11    1
    16    12    17   ar
    17     1     7    1
    18    11    18    1
    19    16    17   ar
    20    16    22    1
    21    17    23    1
    22     7    10    1
    23     7     8    1
