@<TRIPOS>MOLECULE
GS-668-0.out
 12 11 0 0 0
SMALL
MULLIKEN_CHARGES
****
Gaussian 16 # wB97XD def2tzvp, opt=(calcfc, maxcycles=70, maxstep=10), freq=norama
@<TRIPOS>ATOM
      1 C          -0.3340   -0.2626    0.0000 C.2     1  UNL1       -0.1485
      2 C          -1.6861   -0.9098    0.0000 C.2     1  UNL1        0.4564
      3 O          -1.8323   -2.1068    0.0000 O.2     1  UNL1       -0.4126
      4 C           0.7279   -1.0597    0.0000 C.2     1  UNL1       -0.0745
      5 BR          2.5074   -0.5213   -0.0000 Br      1  UNL1        0.0082
      6 H           0.5865   -2.1309   -0.0000 H       1  UNL1        0.2035
      7 BR         -0.2154    1.6132    0.0000 Br      1  UNL1       -0.0138
      8 O          -2.6753   -0.0361   -0.0000 O.3     1  UNL1       -0.2637
      9 C          -4.0013   -0.5776   -0.0000 C.3     1  UNL1       -0.2016
     10 H          -4.6653    0.2808   -0.0000 H       1  UNL1        0.1537
     11 H          -4.1599   -1.1835   -0.8906 H       1  UNL1        0.1465
     12 H          -4.1599   -1.1835    0.8906 H       1  UNL1        0.1465
@<TRIPOS>BOND
     1    11     9    1
     2    10     9    1
     3     8     9    1
     4     8     2    1
     5     9    12    1
     6     5     4    1
     7     4     6    1
     8     4     1    2
     9     1     2    1
    10     1     7    1
    11     2     3    2
