@<TRIPOS>MOLECULE
GS-695-0.out
 23 23 0 0 0
SMALL
MULLIKEN_CHARGES
****
Gaussian 16 # wB97XD def2tzvp, opt=(calcfc, maxcycles=70, maxstep=10), freq=norama
@<TRIPOS>ATOM
      1 C          -1.1296   -0.1963   -0.0420 C.2     1  UNL1       -0.3456
      2 C           0.2161    0.4422   -0.0360 C.2     1  UNL1        0.4939
      3 O           0.4149    1.6461   -0.0450 O.2     1  UNL1       -0.4951
      4 C          -2.2892    0.4530    0.0185 C.2     1  UNL1        0.0977
      5 BR         -3.8749   -0.6141   -0.0095 Br      1  UNL1       -0.0818
      6 C          -2.5641    1.9111    0.1095 C.3     1  UNL1       -0.3528
      7 H          -1.6319    2.4663    0.1422 H       1  UNL1        0.1594
      8 H          -3.1520    2.2320   -0.7527 H       1  UNL1        0.1515
      9 H          -3.1539    2.1222    1.0033 H       1  UNL1        0.1504
     10 H          -1.1484   -1.2769   -0.0974 H       1  UNL1        0.1593
     11 N           1.2169   -0.4848   -0.0221 N.am    1  UNL1       -0.2672
     12 C           2.6082   -0.2948   -0.0086 C.ar    1  UNL1        0.2962
     13 C           3.3991   -1.4448    0.0411 C.ar    1  UNL1       -0.2959
     14 C           4.7781   -1.3480    0.0551 C.ar    1  UNL1       -0.0989
     15 C           5.3945   -0.1041    0.0202 C.ar    1  UNL1       -0.1862
     16 C           4.6090    1.0360   -0.0293 C.ar    1  UNL1       -0.1079
     17 C           3.2230    0.9555   -0.0442 C.ar    1  UNL1       -0.2874
     18 H           0.9274   -1.4484   -0.0088 H       1  UNL1        0.2628
     19 H           2.9274   -2.4203    0.0691 H       1  UNL1        0.1457
     20 H           5.3733   -2.2514    0.0939 H       1  UNL1        0.1468
     21 H           6.4738   -0.0272    0.0314 H       1  UNL1        0.1439
     22 H           5.0753    2.0129   -0.0575 H       1  UNL1        0.1449
     23 H           2.6229    1.8490   -0.0826 H       1  UNL1        0.1662
@<TRIPOS>BOND
     1     8     6    1
     2    10     1    1
     3    23    17    1
     4    22    16    1
     5     3     2    2
     6    17    16   ar
     7    17    12   ar
     8     1     2    1
     9     1     4    2
    10     2    11   am
    11    16    15   ar
    12    11    18    1
    13    11    12    1
    14     5     4    1
    15    12    13   ar
    16     4     6    1
    17    15    21    1
    18    15    14   ar
    19    13    14   ar
    20    13    19    1
    21    14    20    1
    22     6     7    1
    23     6     9    1
