@<TRIPOS>MOLECULE
GS-601-0.out
 28 29 0 0 0
SMALL
MULLIKEN_CHARGES
****
Gaussian 16 # wB97XD def2tzvp, opt=(calcfc, maxcycles=70, maxstep=10), freq=norama
@<TRIPOS>ATOM
      1 C           0.4335    0.7957   -0.1247 C.2     1  UNL1       -0.0498
      2 C           0.0298    2.2033   -0.3520 C.2     1  UNL1        0.1573
      3 O           0.8117    3.1248   -0.3579 O.2     1  UNL1       -0.3662
      4 C          -0.5209   -0.1426   -0.0423 C.2     1  UNL1        0.0584
      5 BR         -0.0386   -1.9779    0.0723 Br      1  UNL1       -0.0299
      6 C          -1.9782    0.0944   -0.0018 C.ar    1  UNL1        0.1505
      7 C          -2.8138   -0.4241   -0.9896 C.ar    1  UNL1       -0.2042
      8 C          -4.1750   -0.1799   -0.9451 C.ar    1  UNL1       -0.1498
      9 C          -4.7177    0.5657    0.0940 C.ar    1  UNL1       -0.1258
     10 C          -3.8932    1.0700    1.0874 C.ar    1  UNL1       -0.1194
     11 C          -2.5270    0.8369    1.0410 C.ar    1  UNL1       -0.2609
     12 H          -2.3936   -1.0094   -1.7977 H       1  UNL1        0.1590
     13 H          -4.8159   -0.5734   -1.7233 H       1  UNL1        0.1501
     14 H          -5.7838    0.7495    0.1290 H       1  UNL1        0.1520
     15 H          -4.3110    1.6458    1.9028 H       1  UNL1        0.1510
     16 H          -1.8814    1.2244    1.8191 H       1  UNL1        0.1675
     17 C           1.8896    0.5192   -0.0401 C.ar    1  UNL1        0.1553
     18 C           2.6687    0.4911   -1.1918 C.ar    1  UNL1       -0.2205
     19 C           4.0301    0.2418   -1.1085 C.ar    1  UNL1       -0.1491
     20 C           4.6247    0.0285    0.1272 C.ar    1  UNL1       -0.1246
     21 C           3.8530    0.0664    1.2797 C.ar    1  UNL1       -0.1508
     22 C           2.4907    0.3115    1.1967 C.ar    1  UNL1       -0.2156
     23 H           2.2058    0.6581   -2.1567 H       1  UNL1        0.1461
     24 H           4.6276    0.2147   -2.0109 H       1  UNL1        0.1450
     25 H           5.6878   -0.1651    0.1918 H       1  UNL1        0.1472
     26 H           4.3116   -0.0962    2.2468 H       1  UNL1        0.1449
     27 H           1.8868    0.3374    2.0955 H       1  UNL1        0.1506
     28 H          -1.0402    2.3743   -0.5441 H       1  UNL1        0.1317
@<TRIPOS>BOND
     1    23    18    1
     2    24    19    1
     3    12     7    1
     4    13     8    1
     5    18    19   ar
     6    18    17   ar
     7    19    20   ar
     8     7     8   ar
     9     7     6   ar
    10     8     9   ar
    11    28     2    1
    12     3     2    2
    13     2     1    1
    14     1     4    2
    15     1    17    1
    16     4     6    1
    17     4     5    1
    18    17    22   ar
    19     6    11   ar
    20     9    14    1
    21     9    10   ar
    22    20    25    1
    23    20    21   ar
    24    11    10   ar
    25    11    16    1
    26    10    15    1
    27    22    21   ar
    28    22    27    1
    29    21    26    1
