@<TRIPOS>MOLECULE
GS-698-0.out
 17 16 0 0 0
SMALL
MULLIKEN_CHARGES
****
Gaussian 16 # wB97XD def2tzvp, opt=(calcfc, maxcycles=70, maxstep=10), freq=norama
@<TRIPOS>ATOM
      1 C          -0.7935   -0.3557   -0.1521 C.2     1  UNL1       -0.0686
      2 C          -2.2024    0.1719   -0.1184 C.2     1  UNL1        0.2664
      3 O          -2.5356    1.1737   -0.7124 O.2     1  UNL1       -0.3915
      4 C           0.2214    0.4914    0.0213 C.2     1  UNL1        0.0379
      5 BR          2.0225   -0.1702    0.0297 Br      1  UNL1       -0.1058
      6 C           0.1842    1.9645    0.2620 C.3     1  UNL1       -0.3473
      7 H          -0.8355    2.3211    0.3724 H       1  UNL1        0.1437
      8 H           0.7535    2.2109    1.1592 H       1  UNL1        0.1450
      9 H           0.6445    2.4936   -0.5748 H       1  UNL1        0.1491
     10 C          -0.6789   -1.8442   -0.3250 C.3     1  UNL1       -0.3671
     11 H          -1.3661   -2.1958   -1.0960 H       1  UNL1        0.1549
     12 H           0.3284   -2.1359   -0.6082 H       1  UNL1        0.1470
     13 H          -0.9342   -2.3630    0.6022 H       1  UNL1        0.1536
     14 C          -3.1946   -0.6333    0.6781 C.3     1  UNL1       -0.3794
     15 H          -2.7906   -0.8786    1.6616 H       1  UNL1        0.1599
     16 H          -4.1219   -0.0744    0.7776 H       1  UNL1        0.1428
     17 H          -3.3989   -1.5775    0.1687 H       1  UNL1        0.1594
@<TRIPOS>BOND
     1    11    10    1
     2     3     2    2
     3    12    10    1
     4     9     6    1
     5    10     1    1
     6    10    13    1
     7     1     2    1
     8     1     4    2
     9     2    14    1
    10     4     5    1
    11     4     6    1
    12    17    14    1
    13     6     7    1
    14     6     8    1
    15    14    16    1
    16    14    15    1
