@<TRIPOS>MOLECULE
GS-644-0.out
 22 22 0 0 0
SMALL
MULLIKEN_CHARGES
****
Gaussian 16 # wB97XD def2tzvp, opt=(calcfc, maxcycles=70, maxstep=10), freq=norama
@<TRIPOS>ATOM
      1 C           0.3470   -0.7044   -0.0000 C.2     1  UNL1       -0.1625
      2 C           1.6912   -1.3653   -0.0000 C.2     1  UNL1        0.4514
      3 O           1.8704   -2.5592   -0.0000 O.2     1  UNL1       -0.4276
      4 C          -0.6967   -1.5256    0.0000 C.2     1  UNL1       -0.0490
      5 BR         -2.4819   -0.9613    0.0000 Br      1  UNL1       -0.0220
      6 H          -0.5790   -2.5994   -0.0000 H       1  UNL1        0.1891
      7 C           0.2494    0.7775   -0.0000 C.ar    1  UNL1        0.1867
      8 C           0.2005    1.4769    1.2012 C.ar    1  UNL1       -0.2143
      9 C           0.1013    2.8600    1.2006 C.ar    1  UNL1       -0.1502
     10 C           0.0516    3.5540   -0.0000 C.ar    1  UNL1       -0.1244
     11 C           0.1011    2.8600   -1.2006 C.ar    1  UNL1       -0.1502
     12 C           0.2003    1.4768   -1.2012 C.ar    1  UNL1       -0.2143
     13 H           0.2382    0.9348    2.1381 H       1  UNL1        0.1470
     14 H           0.0618    3.3961    2.1403 H       1  UNL1        0.1454
     15 H          -0.0260    4.6337   -0.0000 H       1  UNL1        0.1475
     16 H           0.0614    3.3960   -2.1403 H       1  UNL1        0.1454
     17 H           0.2377    0.9347   -2.1382 H       1  UNL1        0.1470
     18 O           2.6733   -0.4725   -0.0000 O.3     1  UNL1       -0.2680
     19 C           4.0058   -0.9906   -0.0001 C.3     1  UNL1       -0.2123
     20 H           4.6575   -0.1223   -0.0001 H       1  UNL1        0.1496
     21 H           4.1774   -1.5946    0.8899 H       1  UNL1        0.1430
     22 H           4.1774   -1.5946   -0.8900 H       1  UNL1        0.1430
@<TRIPOS>BOND
     1    16    11    1
     2    17    12    1
     3    12    11   ar
     4    12     7   ar
     5    11    10   ar
     6    22    19    1
     7    20    19    1
     8    19    18    1
     9    19    21    1
    10    18     2    1
    11     2     1    1
    12     2     3    2
    13     7     1    1
    14     7     8   ar
    15     1     4    2
    16     6     4    1
    17    15    10    1
    18    10     9   ar
    19     4     5    1
    20     9     8   ar
    21     9    14    1
    22     8    13    1
