@<TRIPOS>MOLECULE
GS-69-0.out
 23 23 0 0 0
SMALL
MULLIKEN_CHARGES
****
Gaussian 16 # wB97XD def2tzvp, opt=(calcfc, maxcycles=70, maxstep=10), freq=norama
@<TRIPOS>ATOM
      1 C           0.8109    0.2822    0.0707 C.2     1  UNL1       -0.0452
      2 C           2.1568    0.9625    0.1442 C.2     1  UNL1        0.3715
      3 O           2.2209    2.1704    0.3391 O.2     1  UNL1       -0.4931
      4 C          -0.2912    1.0199    0.1747 C.2     1  UNL1       -0.1558
      5 C          -1.7103    0.6511    0.1298 C.ar    1  UNL1        0.2282
      6 C          -2.2309   -0.4789    0.7606 C.ar    1  UNL1       -0.2454
      7 C          -3.5875   -0.7551    0.6979 C.ar    1  UNL1       -0.1368
      8 C          -4.4425    0.0861    0.0004 C.ar    1  UNL1       -0.1370
      9 C          -3.9377    1.2215   -0.6180 C.ar    1  UNL1       -0.1431
     10 C          -2.5854    1.5087   -0.5405 C.ar    1  UNL1       -0.2346
     11 H          -1.5802   -1.1334    1.3235 H       1  UNL1        0.1663
     12 H          -3.9783   -1.6307    1.2003 H       1  UNL1        0.1470
     13 H          -5.5008   -0.1360   -0.0509 H       1  UNL1        0.1487
     14 H          -4.5997    1.8897   -1.1537 H       1  UNL1        0.1471
     15 H          -2.1963    2.4037   -1.0110 H       1  UNL1        0.1471
     16 H          -0.0840    2.0815    0.2737 H       1  UNL1        0.1760
     17 BR          0.7713   -1.5942   -0.2400 Br      1  UNL1       -0.0806
     18 N           3.2460    0.2020   -0.0093 N.am    1  UNL1       -0.2988
     19 C           4.5754    0.7686    0.0425 C.3     1  UNL1       -0.2538
     20 H           3.1426   -0.7838   -0.1714 H       1  UNL1        0.2643
     21 H           5.2983   -0.0333   -0.0818 H       1  UNL1        0.1492
     22 H           4.7169    1.5029   -0.7518 H       1  UNL1        0.1395
     23 H           4.7489    1.2602    1.0006 H       1  UNL1        0.1393
@<TRIPOS>BOND
     1    14     9    1
     2    15    10    1
     3    22    19    1
     4     9    10   ar
     5     9     8   ar
     6    10     5   ar
     7    17     1    1
     8    20    18    1
     9    21    19    1
    10    13     8    1
    11    18    19    1
    12    18     2   am
    13     8     7   ar
    14    19    23    1
    15     1     2    1
    16     1     4    2
    17     5     4    1
    18     5     6   ar
    19     2     3    2
    20     4    16    1
    21     7     6   ar
    22     7    12    1
    23     6    11    1
