@<TRIPOS>MOLECULE
GS-621-0.out
 26 26 0 0 0
SMALL
MULLIKEN_CHARGES
****
Gaussian 16 # wB97XD def2tzvp, opt=(calcfc, maxcycles=70, maxstep=10), freq=norama
@<TRIPOS>ATOM
      1 C           0.5486    1.4547    0.0631 C.2     1  UNL1        0.0020
      2 C          -0.8706    1.9694    0.1349 C.2     1  UNL1        0.2702
      3 O          -1.2394    2.6528    1.0816 O.2     1  UNL1       -0.4761
      4 C           0.7597    0.1410    0.0373 C.2     1  UNL1       -0.0203
      5 BR          2.5396   -0.5632   -0.0501 Br      1  UNL1       -0.0912
      6 C          -0.2857   -0.9053    0.1112 C.ar    1  UNL1        0.1175
      7 C          -0.4340   -1.8463   -0.9058 C.ar    1  UNL1       -0.2020
      8 C          -1.4462   -2.7891   -0.8432 C.ar    1  UNL1       -0.1447
      9 C          -2.3139   -2.8113    0.2409 C.ar    1  UNL1       -0.1320
     10 C          -2.1627   -1.8870    1.2633 C.ar    1  UNL1       -0.1497
     11 C          -1.1521   -0.9395    1.2010 C.ar    1  UNL1       -0.1921
     12 H           0.2403   -1.8321   -1.7531 H       1  UNL1        0.1548
     13 H          -1.5595   -3.5084   -1.6442 H       1  UNL1        0.1470
     14 H          -3.1029   -3.5508    0.2893 H       1  UNL1        0.1485
     15 H          -2.8302   -1.9033    2.1152 H       1  UNL1        0.1475
     16 H          -1.0334   -0.2186    1.9999 H       1  UNL1        0.1568
     17 C           1.5777    2.5395    0.0833 C.3     1  UNL1       -0.3405
     18 H           1.4093    3.1801    0.9504 H       1  UNL1        0.1471
     19 H           2.5893    2.1456    0.1243 H       1  UNL1        0.1372
     20 H           1.4805    3.1657   -0.8068 H       1  UNL1        0.1470
     21 N          -1.6577    1.6752   -0.9078 N.am    1  UNL1       -0.2771
     22 C          -3.0564    2.0412   -0.9407 C.3     1  UNL1       -0.2558
     23 H          -1.2943    1.0769   -1.6284 H       1  UNL1        0.2789
     24 H          -3.1739    3.1169   -0.8112 H       1  UNL1        0.1389
     25 H          -3.4684    1.7533   -1.9043 H       1  UNL1        0.1496
     26 H          -3.6121    1.5339   -0.1491 H       1  UNL1        0.1385
@<TRIPOS>BOND
     1    25    22    1
     2    12     7    1
     3    13     8    1
     4    23    21    1
     5    22    21    1
     6    22    24    1
     7    22    26    1
     8    21     2   am
     9     7     8   ar
    10     7     6   ar
    11     8     9   ar
    12    20    17    1
    13     5     4    1
    14     4     1    2
    15     4     6    1
    16     1    17    1
    17     1     2    1
    18    17    19    1
    19    17    18    1
    20     6    11   ar
    21     2     3    2
    22     9    14    1
    23     9    10   ar
    24    11    10   ar
    25    11    16    1
    26    10    15    1
