@<TRIPOS>MOLECULE
GS-611-0.out
 20 20 0 0 0
SMALL
MULLIKEN_CHARGES
****
Gaussian 16 # wB97XD def2tzvp, opt=(calcfc, maxcycles=70, maxstep=10), freq=norama
@<TRIPOS>ATOM
      1 C          -1.1736    1.3484   -0.1028 C.2     1  UNL1       -0.2240
      2 C          -0.3295    2.5808   -0.1859 C.2     1  UNL1        0.3109
      3 O          -0.6512    3.5704    0.4571 O.2     1  UNL1       -0.4676
      4 C          -0.7348    0.0988   -0.0170 C.2     1  UNL1        0.0391
      5 BR         -2.0286   -1.3026    0.0999 Br      1  UNL1       -0.0712
      6 C           0.6692   -0.3566    0.0456 C.ar    1  UNL1        0.0923
      7 C           1.4853    0.0760    1.0877 C.ar    1  UNL1       -0.1787
      8 C           2.8120   -0.3204    1.1438 C.ar    1  UNL1       -0.1376
      9 C           3.3330   -1.1482    0.1603 C.ar    1  UNL1       -0.1314
     10 C           2.5214   -1.5861   -0.8776 C.ar    1  UNL1       -0.1375
     11 C           1.1925   -1.1999   -0.9321 C.ar    1  UNL1       -0.1850
     12 H           1.0766    0.7233    1.8533 H       1  UNL1        0.1601
     13 H           3.4389    0.0183    1.9584 H       1  UNL1        0.1498
     14 H           4.3699   -1.4556    0.2035 H       1  UNL1        0.1510
     15 H           2.9241   -2.2320   -1.6470 H       1  UNL1        0.1500
     16 H           0.5597   -1.5454   -1.7401 H       1  UNL1        0.1561
     17 H          -2.2338    1.5590   -0.0523 H       1  UNL1        0.1781
     18 N           0.7293    2.5579   -1.0111 N.am    1  UNL1       -0.4296
     19 H           1.3286    3.3638   -1.0594 H       1  UNL1        0.2829
     20 H           0.9893    1.7334   -1.5216 H       1  UNL1        0.2924
@<TRIPOS>BOND
     1    16    11    1
     2    15    10    1
     3    20    18    1
     4    19    18    1
     5    18     2   am
     6    11    10   ar
     7    11     6   ar
     8    10     9   ar
     9     2     1    1
    10     2     3    2
    11     1    17    1
    12     1     4    2
    13     4     6    1
    14     4     5    1
    15     6     7   ar
    16     9    14    1
    17     9     8   ar
    18     7     8   ar
    19     7    12    1
    20     8    13    1
