@<TRIPOS>MOLECULE
GS-661-0.out
 16 15 0 0 0
SMALL
MULLIKEN_CHARGES
****
Gaussian 16 # wB97XD def2tzvp, opt=(calcfc, maxcycles=70, maxstep=10), freq=norama
@<TRIPOS>ATOM
      1 C           0.3740    0.2854    0.0001 C.2     1  UNL1       -0.0982
      2 C           1.7379   -0.3650    0.0001 C.2     1  UNL1        0.3725
      3 O           1.8866   -1.5824    0.0002 O.2     1  UNL1       -0.5042
      4 C          -0.6415   -0.5687   -0.0000 C.2     1  UNL1       -0.0822
      5 BR         -2.4622   -0.0949   -0.0000 Br      1  UNL1       -0.0606
      6 H          -0.4813   -1.6361   -0.0001 H       1  UNL1        0.1847
      7 C           0.2566    1.7776    0.0002 C.3     1  UNL1       -0.4114
      8 H           0.7330    2.2082   -0.8836 H       1  UNL1        0.1584
      9 H          -0.7849    2.0894    0.0003 H       1  UNL1        0.1429
     10 H           0.7331    2.2080    0.8840 H       1  UNL1        0.1585
     11 N           2.7854    0.4747   -0.0002 N.am    1  UNL1       -0.3006
     12 C           4.1478   -0.0102   -0.0001 C.3     1  UNL1       -0.2569
     13 H           2.6320    1.4658   -0.0003 H       1  UNL1        0.2738
     14 H           4.8201    0.8438   -0.0003 H       1  UNL1        0.1480
     15 H           4.3440   -0.6178    0.8843 H       1  UNL1        0.1377
     16 H           4.3439   -0.6180   -0.8845 H       1  UNL1        0.1377
@<TRIPOS>BOND
     1    16    12    1
     2     8     7    1
     3    13    11    1
     4    14    12    1
     5    11    12    1
     6    11     2   am
     7    12    15    1
     8     6     4    1
     9     5     4    1
    10     4     1    2
    11     2     1    1
    12     2     3    2
    13     1     7    1
    14     7     9    1
    15     7    10    1
