@<TRIPOS>MOLECULE
GS-687-0.out
 33 34 0 0 0
SMALL
MULLIKEN_CHARGES
****
Gaussian 16 # wB97XD def2tzvp, opt=(calcfc, maxcycles=70, maxstep=10), freq=norama
@<TRIPOS>ATOM
      1 C           0.7858   -0.5332    0.1295 C.2     1  UNL1       -0.0777
      2 C          -0.6446   -0.9747    0.3413 C.2     1  UNL1        0.3930
      3 O          -0.9430   -1.9835    0.9565 O.2     1  UNL1       -0.4705
      4 C           1.7355   -1.4451   -0.0839 C.2     1  UNL1        0.0480
      5 BR          3.5540   -0.8754   -0.2308 Br      1  UNL1       -0.0731
      6 C           1.5981   -2.9221   -0.2363 C.3     1  UNL1       -0.3678
      7 H           0.5543   -3.2168   -0.2801 H       1  UNL1        0.1488
      8 H           2.1101   -3.2471   -1.1428 H       1  UNL1        0.1488
      9 H           2.0679   -3.4313    0.6074 H       1  UNL1        0.1539
     10 C           1.0337    0.9342    0.1845 C.ar    1  UNL1        0.0567
     11 C           1.2949    1.6564   -0.9769 C.ar    1  UNL1       -0.2019
     12 C           1.4844    3.0292   -0.9212 C.ar    1  UNL1       -0.1405
     13 C           1.4158    3.6918    0.2954 C.ar    1  UNL1       -0.1152
     14 C           1.1511    2.9783    1.4563 C.ar    1  UNL1       -0.1589
     15 C           0.9539    1.6076    1.4006 C.ar    1  UNL1       -0.1708
     16 H           1.3517    1.1376   -1.9262 H       1  UNL1        0.1576
     17 H           1.6869    3.5806   -1.8305 H       1  UNL1        0.1473
     18 H           1.5655    4.7630    0.3392 H       1  UNL1        0.1492
     19 H           1.0949    3.4908    2.4081 H       1  UNL1        0.1467
     20 H           0.7410    1.0529    2.3064 H       1  UNL1        0.1482
     21 N          -1.5518   -0.1217   -0.2040 N.am    1  UNL1       -0.2375
     22 C          -2.9549   -0.1704   -0.1690 C.ar    1  UNL1        0.3012
     23 C          -3.6351    0.9058   -0.7421 C.ar    1  UNL1       -0.3063
     24 C          -5.0172    0.9353   -0.7539 C.ar    1  UNL1       -0.1030
     25 C          -5.7456   -0.1060   -0.1940 C.ar    1  UNL1       -0.1830
     26 C          -5.0693   -1.1735    0.3739 C.ar    1  UNL1       -0.1139
     27 C          -3.6817   -1.2186    0.3918 C.ar    1  UNL1       -0.2874
     28 H          -1.1677    0.6862   -0.6681 H       1  UNL1        0.2620
     29 H          -3.0743    1.7236   -1.1795 H       1  UNL1        0.1466
     30 H          -5.5265    1.7785   -1.2028 H       1  UNL1        0.1468
     31 H          -6.8274   -0.0836   -0.2019 H       1  UNL1        0.1440
     32 H          -5.6242   -1.9930    0.8133 H       1  UNL1        0.1449
     33 H          -3.1660   -2.0541    0.8352 H       1  UNL1        0.1637
@<TRIPOS>BOND
     1    16    11    1
     2    17    12    1
     3    30    24    1
     4    29    23    1
     5     8     6    1
     6    11    12   ar
     7    11    10   ar
     8    12    13   ar
     9    24    23   ar
    10    24    25   ar
    11    23    22   ar
    12    28    21    1
    13     7     6    1
    14     6     4    1
    15     6     9    1
    16     5     4    1
    17    21    22    1
    18    21     2   am
    19    31    25    1
    20    25    26   ar
    21    22    27   ar
    22     4     1    2
    23     1    10    1
    24     1     2    1
    25    10    15   ar
    26    13    18    1
    27    13    14   ar
    28     2     3    2
    29    26    27   ar
    30    26    32    1
    31    27    33    1
    32    15    14   ar
    33    15    20    1
    34    14    19    1
