@<TRIPOS>MOLECULE
GS-660-0.out
 15 14 0 0 0
SMALL
MULLIKEN_CHARGES
****
Gaussian 16 # wB97XD def2tzvp, opt=(calcfc, maxcycles=70, maxstep=10), freq=norama
@<TRIPOS>ATOM
      1 C          -0.3848    0.2746    0.0000 C.2     1  UNL1       -0.1431
      2 C          -1.7360   -0.3728    0.0000 C.2     1  UNL1        0.4487
      3 O          -1.9384   -1.5634    0.0001 O.2     1  UNL1       -0.4310
      4 C           0.6354   -0.5761   -0.0000 C.2     1  UNL1       -0.0638
      5 BR          2.4476   -0.0885   -0.0000 Br      1  UNL1       -0.0464
      6 H           0.4859   -1.6453   -0.0000 H       1  UNL1        0.1874
      7 C          -0.2988    1.7667    0.0000 C.3     1  UNL1       -0.3299
      8 H          -0.7979    2.1779    0.8784 H       1  UNL1        0.1430
      9 H           0.7362    2.1002    0.0001 H       1  UNL1        0.1341
     10 H          -0.7979    2.1779   -0.8783 H       1  UNL1        0.1430
     11 O          -2.7078    0.5336   -0.0000 O.3     1  UNL1       -0.2693
     12 C          -4.0463    0.0330   -0.0000 C.3     1  UNL1       -0.2051
     13 H          -4.6878    0.9090   -0.0001 H       1  UNL1        0.1489
     14 H          -4.2266   -0.5683   -0.8902 H       1  UNL1        0.1417
     15 H          -4.2267   -0.5682    0.8901 H       1  UNL1        0.1417
@<TRIPOS>BOND
     1    14    12    1
     2    10     7    1
     3    13    12    1
     4    12    11    1
     5    12    15    1
     6    11     2    1
     7     5     4    1
     8     6     4    1
     9     4     1    2
    10     1     2    1
    11     1     7    1
    12     2     3    2
    13     7     9    1
    14     7     8    1
