@<TRIPOS>MOLECULE
GS-697-1.out
 14 13 0 0 0
SMALL
MULLIKEN_CHARGES
****
Gaussian 16 # wB97XD def2tzvp, opt=(calcfc, maxcycles=70, maxstep=1), freq=noraman
@<TRIPOS>ATOM
      1 C          -1.1021   -0.1814    0.0001 C.2     1  UNL1       -0.0284
      2 C          -2.4212    0.4856   -0.0000 C.2     1  UNL1        0.1507
      3 O          -3.4634   -0.1306   -0.0001 O.2     1  UNL1       -0.3807
      4 C           0.0065    0.5724    0.0000 C.2     1  UNL1        0.0493
      5 BR          1.7247   -0.2638   -0.0000 Br      1  UNL1       -0.0781
      6 C           0.1422    2.0596    0.0000 C.3     1  UNL1       -0.3261
      7 H           0.7036    2.3781    0.8796 H       1  UNL1        0.1563
      8 H           0.7037    2.3781   -0.8794 H       1  UNL1        0.1563
      9 H          -0.8146    2.5728   -0.0000 H       1  UNL1        0.1260
     10 C          -1.1613   -1.6779    0.0001 C.3     1  UNL1       -0.3422
     11 H          -1.7083   -2.0281   -0.8768 H       1  UNL1        0.1398
     12 H          -0.1743   -2.1294    0.0008 H       1  UNL1        0.1397
     13 H          -1.7096   -2.0281    0.8762 H       1  UNL1        0.1397
     14 H          -2.4410    1.5839   -0.0000 H       1  UNL1        0.0976
@<TRIPOS>BOND
     1     8     6    1
     2    11    10    1
     3     3     2    2
     4     5     4    1
     5     9     6    1
     6    14     2    1
     7     2     1    1
     8     6     4    1
     9     6     7    1
    10     4     1    2
    11    10     1    1
    12    10    12    1
    13    10    13    1
