@<TRIPOS>MOLECULE
GS-67-1.out
 20 20 0 0 0
SMALL
MULLIKEN_CHARGES
****
Gaussian 16 # wB97XD def2tzvp, opt=(maxcycles=70, maxstep=1), freq=noraman, scrf=(
@<TRIPOS>ATOM
      1 C           1.1180    0.4279    0.0763 C.2     1  UNL1       -0.0172
      2 C           2.4018    1.2186    0.1553 C.2     1  UNL1        0.3167
      3 O           2.3647    2.4264    0.3401 O.2     1  UNL1       -0.4710
      4 C          -0.0413    1.0743    0.1744 C.2     1  UNL1       -0.1635
      5 C          -1.4268    0.5974    0.1258 C.ar    1  UNL1        0.2320
      6 C          -1.8554   -0.5887    0.7224 C.ar    1  UNL1       -0.2413
      7 C          -3.1875   -0.9651    0.6577 C.ar    1  UNL1       -0.1361
      8 C          -4.1090   -0.1699   -0.0083 C.ar    1  UNL1       -0.1371
      9 C          -3.6967    1.0195   -0.5929 C.ar    1  UNL1       -0.1426
     10 C          -2.3699    1.4065   -0.5123 C.ar    1  UNL1       -0.2303
     11 H          -1.1526   -1.2098    1.2595 H       1  UNL1        0.1659
     12 H          -3.5069   -1.8832    1.1339 H       1  UNL1        0.1475
     13 H          -5.1477   -0.4703   -0.0615 H       1  UNL1        0.1491
     14 H          -4.4115    1.6518   -1.1037 H       1  UNL1        0.1475
     15 H          -2.0538    2.3433   -0.9554 H       1  UNL1        0.1472
     16 H           0.0806    2.1490    0.2730 H       1  UNL1        0.1765
     17 BR          1.2402   -1.4443   -0.2316 Br      1  UNL1       -0.0789
     18 N           3.5527    0.5459    0.0168 N.am    1  UNL1       -0.4340
     19 H           4.4150    1.0595    0.0660 H       1  UNL1        0.2852
     20 H           3.5855   -0.4458   -0.1346 H       1  UNL1        0.2845
@<TRIPOS>BOND
     1    14     9    1
     2    15    10    1
     3     9    10   ar
     4     9     8   ar
     5    10     5   ar
     6    17     1    1
     7    20    18    1
     8    13     8    1
     9     8     7   ar
    10    18    19    1
    11    18     2   am
    12     1     2    1
    13     1     4    2
    14     5     4    1
    15     5     6   ar
    16     2     3    2
    17     4    16    1
    18     7     6   ar
    19     7    12    1
    20     6    11    1
