@<TRIPOS>MOLECULE
GS-657-0.out
 11 10 0 0 0
SMALL
MULLIKEN_CHARGES
****
Gaussian 16 # wB97XD def2tzvp, opt=(calcfc, maxcycles=70, maxstep=10), freq=norama
@<TRIPOS>ATOM
      1 C           1.1000    0.0448    0.0000 C.2     1  UNL1       -0.0191
      2 C           2.3603   -0.7274   -0.0000 C.2     1  UNL1        0.1411
      3 O           3.4563   -0.2190   -0.0000 O.2     1  UNL1       -0.3725
      4 C          -0.0042   -0.6996    0.0000 C.2     1  UNL1       -0.0916
      5 BR         -1.7580   -0.0368   -0.0000 Br      1  UNL1       -0.0332
      6 H           0.0302   -1.7806    0.0000 H       1  UNL1        0.1886
      7 C           1.1934    1.5328    0.0000 C.3     1  UNL1       -0.3508
      8 H           1.7463    1.8721   -0.8775 H       1  UNL1        0.1455
      9 H           0.2110    1.9988    0.0000 H       1  UNL1        0.1399
     10 H           1.7464    1.8721    0.8775 H       1  UNL1        0.1455
     11 H           2.2469   -1.8263   -0.0000 H       1  UNL1        0.1066
@<TRIPOS>BOND
     1     8     7    1
     2     1     2    1
     3     1     4    2
     4     1     7    1
     5     2     3    2
     6     2    11    1
     7     4     5    1
     8     4     6    1
     9     7     9    1
    10     7    10    1
