@<TRIPOS>MOLECULE
GS-65-1.out
 18 18 0 0 0
SMALL
MULLIKEN_CHARGES
****
Gaussian 16 # wB97XD def2tzvp, opt=(maxcycles=70, maxstep=1), freq=noraman, scrf=(
@<TRIPOS>ATOM
      1 C           1.3178    0.5637    0.0529 C.2     1  UNL1        0.0234
      2 C           2.5105    1.4474    0.0834 C.2     1  UNL1        0.1517
      3 O           2.4562    2.6428    0.2291 O.2     1  UNL1       -0.3607
      4 C           0.0892    1.0870    0.1134 C.2     1  UNL1       -0.1846
      5 C          -1.2520    0.5146    0.0837 C.ar    1  UNL1        0.2335
      6 C          -1.5607   -0.8103    0.4062 C.ar    1  UNL1       -0.2175
      7 C          -2.8703   -1.2568    0.3561 C.ar    1  UNL1       -0.1452
      8 C          -3.8925   -0.3978   -0.0225 C.ar    1  UNL1       -0.1219
      9 C          -3.6029    0.9231   -0.3344 C.ar    1  UNL1       -0.1510
     10 C          -2.2976    1.3760   -0.2694 C.ar    1  UNL1       -0.2071
     11 H          -0.7836   -1.4914    0.7175 H       1  UNL1        0.1604
     12 H          -3.0940   -2.2832    0.6168 H       1  UNL1        0.1490
     13 H          -4.9136   -0.7548   -0.0648 H       1  UNL1        0.1515
     14 H          -4.3954    1.6024   -0.6203 H       1  UNL1        0.1493
     15 H          -2.0760    2.4108   -0.5010 H       1  UNL1        0.1477
     16 H           0.1125    2.1732    0.1660 H       1  UNL1        0.1636
     17 BR          1.7536   -1.2689   -0.1407 Br      1  UNL1       -0.0620
     18 H           3.4769    0.9297   -0.0400 H       1  UNL1        0.1198
@<TRIPOS>BOND
     1    14     9    1
     2    15    10    1
     3     9    10   ar
     4     9     8   ar
     5    10     5   ar
     6    17     1    1
     7    13     8    1
     8    18     2    1
     9     8     7   ar
    10     1     2    1
    11     1     4    2
    12     2     3    2
    13     5     4    1
    14     5     6   ar
    15     4    16    1
    16     7     6   ar
    17     7    12    1
    18     6    11    1
