@<TRIPOS>MOLECULE
GS-688-0.out
 31 32 0 0 0
SMALL
MULLIKEN_CHARGES
****
Gaussian 16 # wB97XD def2tzvp, opt=(calcfc, maxcycles=70, maxstep=10), freq=norama
@<TRIPOS>ATOM
      1 C          -0.3008   -0.2894    0.5355 C.2     1  UNL1       -0.0047
      2 C           1.0615   -0.2670    1.1963 C.2     1  UNL1        0.2824
      3 O           1.1424   -0.2640    2.4051 O.2     1  UNL1       -0.3731
      4 C          -0.8947   -1.4549    0.3158 C.2     1  UNL1        0.0155
      5 BR         -2.6681   -1.5225   -0.3926 Br      1  UNL1       -0.0803
      6 C          -0.3206   -2.8075    0.5799 C.3     1  UNL1       -0.3742
      7 H           0.6916   -2.7350    0.9768 H       1  UNL1        0.1482
      8 H          -0.9352   -3.3520    1.2983 H       1  UNL1        0.1574
      9 H          -0.2893   -3.3921   -0.3409 H       1  UNL1        0.1541
     10 C          -0.8321    1.0635    0.2303 C.ar    1  UNL1        0.1548
     11 C          -1.0369    1.9774    1.2613 C.ar    1  UNL1       -0.2191
     12 C          -1.5096    3.2513    0.9848 C.ar    1  UNL1       -0.1555
     13 C          -1.7678    3.6296   -0.3246 C.ar    1  UNL1       -0.1270
     14 C          -1.5510    2.7286   -1.3579 C.ar    1  UNL1       -0.1461
     15 C          -1.0837    1.4536   -1.0829 C.ar    1  UNL1       -0.2465
     16 H          -0.8312    1.6853    2.2835 H       1  UNL1        0.1494
     17 H          -1.6747    3.9498    1.7952 H       1  UNL1        0.1456
     18 H          -2.1333    4.6254   -0.5404 H       1  UNL1        0.1475
     19 H          -1.7438    3.0196   -2.3826 H       1  UNL1        0.1454
     20 H          -0.9140    0.7545   -1.8920 H       1  UNL1        0.1693
     21 C           2.2608   -0.1891    0.3222 C.ar    1  UNL1        0.0796
     22 C           2.1659   -0.3631   -1.0564 C.ar    1  UNL1       -0.1683
     23 C           3.3027   -0.2982   -1.8461 C.ar    1  UNL1       -0.1667
     24 C           4.5369   -0.0534   -1.2624 C.ar    1  UNL1       -0.1172
     25 C           4.6382    0.1228    0.1130 C.ar    1  UNL1       -0.1220
     26 C           3.5059    0.0527    0.9027 C.ar    1  UNL1       -0.2258
     27 H           1.2047   -0.5599   -1.5125 H       1  UNL1        0.1760
     28 H           3.2251   -0.4385   -2.9161 H       1  UNL1        0.1490
     29 H           5.4246    0.0003   -1.8798 H       1  UNL1        0.1530
     30 H           5.6024    0.3145    0.5653 H       1  UNL1        0.1510
     31 H           3.5698    0.1868    1.9745 H       1  UNL1        0.1484
@<TRIPOS>BOND
     1    28    23    1
     2    19    14    1
     3    20    15    1
     4    29    24    1
     5    23    24   ar
     6    23    22   ar
     7    27    22    1
     8    14    15   ar
     9    14    13   ar
    10    24    25   ar
    11    15    10   ar
    12    22    21   ar
    13    18    13    1
    14     5     4    1
    15     9     6    1
    16    13    12   ar
    17    25    30    1
    18    25    26   ar
    19    10     1    1
    20    10    11   ar
    21     4     1    2
    22     4     6    1
    23    21    26   ar
    24    21     2    1
    25     1     2    1
    26     6     7    1
    27     6     8    1
    28    26    31    1
    29    12    11   ar
    30    12    17    1
    31     2     3    2
    32    11    16    1
