@<TRIPOS>MOLECULE
GS-623-1.out
 33 34 0 0 0
SMALL
MULLIKEN_CHARGES
****
Gaussian 16 # wB97XD def2tzvp, opt=(calcfc, maxcycles=70, maxstep=1), freq=noraman
@<TRIPOS>ATOM
      1 C          -1.1753   -1.5270    0.0372 C.2     1  UNL1       -0.0075
      2 C           0.3081   -1.6303    0.3125 C.2     1  UNL1        0.3183
      3 O           0.7192   -2.3031    1.2405 O.2     1  UNL1       -0.4537
      4 C          -1.7457   -0.3230    0.0195 C.2     1  UNL1       -0.0057
      5 BR         -3.6209   -0.1336   -0.3090 Br      1  UNL1       -0.0808
      6 C          -1.0558    0.9637    0.2713 C.ar    1  UNL1        0.0988
      7 C          -1.0308    1.9645   -0.6981 C.ar    1  UNL1       -0.2065
      8 C          -0.3233    3.1341   -0.4760 C.ar    1  UNL1       -0.1459
      9 C           0.3549    3.3232    0.7207 C.ar    1  UNL1       -0.1206
     10 C           0.3190    2.3386    1.6964 C.ar    1  UNL1       -0.1548
     11 C          -0.3849    1.1647    1.4749 C.ar    1  UNL1       -0.1867
     12 H          -1.5557    1.8192   -1.6343 H       1  UNL1        0.1550
     13 H          -0.2988    3.8993   -1.2411 H       1  UNL1        0.1474
     14 H           0.9070    4.2382    0.8926 H       1  UNL1        0.1492
     15 H           0.8388    2.4825    2.6347 H       1  UNL1        0.1478
     16 H          -0.4110    0.3955    2.2365 H       1  UNL1        0.1585
     17 C          -1.8494   -2.8523   -0.1210 C.3     1  UNL1       -0.3502
     18 H          -1.6037   -3.4860    0.7323 H       1  UNL1        0.1491
     19 H          -2.9290   -2.7572   -0.1935 H       1  UNL1        0.1390
     20 H          -1.4810   -3.3565   -1.0176 H       1  UNL1        0.1485
     21 N           1.0954   -0.9564   -0.5626 N.am    1  UNL1       -0.2442
     22 C           2.4674   -0.6657   -0.4488 C.ar    1  UNL1        0.3070
     23 C           2.9343    0.4643   -1.1187 C.ar    1  UNL1       -0.2980
     24 C           4.2726    0.8084   -1.0562 C.ar    1  UNL1       -0.1035
     25 C           5.1606    0.0340   -0.3215 C.ar    1  UNL1       -0.1786
     26 C           4.6931   -1.0896    0.3420 C.ar    1  UNL1       -0.1005
     27 C           3.3542   -1.4505    0.2823 C.ar    1  UNL1       -0.3039
     28 H           0.6038   -0.4219   -1.2602 H       1  UNL1        0.2714
     29 H           2.2409    1.0783   -1.6819 H       1  UNL1        0.1576
     30 H           4.6205    1.6897   -1.5797 H       1  UNL1        0.1464
     31 H           6.2071    0.3044   -0.2690 H       1  UNL1        0.1444
     32 H           5.3772   -1.7037    0.9141 H       1  UNL1        0.1455
     33 H           2.9985   -2.3281    0.7980 H       1  UNL1        0.1574
@<TRIPOS>BOND
     1    29    23    1
     2    12     7    1
     3    30    24    1
     4    28    21    1
     5    13     8    1
     6    23    24   ar
     7    23    22   ar
     8    24    25   ar
     9    20    17    1
    10     7     8   ar
    11     7     6   ar
    12    21    22    1
    13    21     2   am
    14     8     9   ar
    15    22    27   ar
    16    25    31    1
    17    25    26   ar
    18     5     4    1
    19    19    17    1
    20    17     1    1
    21    17    18    1
    22     4     1    2
    23     4     6    1
    24     1     2    1
    25     6    11   ar
    26    27    26   ar
    27    27    33    1
    28     2     3    2
    29    26    32    1
    30     9    14    1
    31     9    10   ar
    32    11    10   ar
    33    11    16    1
    34    10    15    1
