@<TRIPOS>MOLECULE
GS-602-1.out
 31 32 0 0 0
SMALL
MULLIKEN_CHARGES
****
Gaussian 16 # wB97XD def2tzvp, opt=(calcfc, maxcycles=70, maxstep=1), freq=noraman
@<TRIPOS>ATOM
      1 C          -0.4458    0.6412    0.0535 C.2     1  UNL1        0.0101
      2 C          -0.0191    2.0941    0.1339 C.2     1  UNL1        0.2011
      3 O          -0.3761    2.8648   -0.7258 O.2     1  UNL1       -0.3596
      4 C           0.4574   -0.3331   -0.0117 C.2     1  UNL1        0.0088
      5 BR         -0.1106   -2.1551   -0.0942 Br      1  UNL1       -0.0665
      6 C           1.9209   -0.1441   -0.0742 C.ar    1  UNL1        0.0689
      7 C           2.7641   -0.7433    0.8607 C.ar    1  UNL1       -0.1938
      8 C           4.1264   -0.5048    0.8229 C.ar    1  UNL1       -0.1491
      9 C           4.6647    0.3212   -0.1564 C.ar    1  UNL1       -0.1223
     10 C           3.8342    0.9047   -1.0997 C.ar    1  UNL1       -0.1424
     11 C           2.4670    0.6723   -1.0614 C.ar    1  UNL1       -0.2040
     12 H           2.3476   -1.3856    1.6264 H       1  UNL1        0.1560
     13 H           4.7718   -0.9632    1.5610 H       1  UNL1        0.1488
     14 H           5.7313    0.5035   -0.1850 H       1  UNL1        0.1505
     15 H           4.2482    1.5401   -1.8718 H       1  UNL1        0.1492
     16 H           1.8200    1.1199   -1.8049 H       1  UNL1        0.1678
     17 C          -1.9177    0.4406    0.0225 C.ar    1  UNL1        0.1968
     18 C          -2.6352    0.3590    1.2114 C.ar    1  UNL1       -0.2000
     19 C          -4.0119    0.1915    1.1857 C.ar    1  UNL1       -0.1572
     20 C          -4.6807    0.1126   -0.0271 C.ar    1  UNL1       -0.1248
     21 C          -3.9688    0.2016   -1.2153 C.ar    1  UNL1       -0.1448
     22 C          -2.5926    0.3672   -1.1921 C.ar    1  UNL1       -0.2412
     23 H          -2.1131    0.4168    2.1588 H       1  UNL1        0.1529
     24 H          -4.5619    0.1223    2.1156 H       1  UNL1        0.1453
     25 H          -5.7551   -0.0180   -0.0469 H       1  UNL1        0.1476
     26 H          -4.4861    0.1405   -2.1644 H       1  UNL1        0.1455
     27 H          -2.0350    0.4338   -2.1177 H       1  UNL1        0.1477
     28 C           0.7376    2.5340    1.3521 C.3     1  UNL1       -0.3581
     29 H           1.5595    1.8570    1.5797 H       1  UNL1        0.1635
     30 H           1.1018    3.5507    1.2229 H       1  UNL1        0.1415
     31 H           0.0483    2.5014    2.2009 H       1  UNL1        0.1615
@<TRIPOS>BOND
     1    26    21    1
     2    27    22    1
     3    15    10    1
     4    16    11    1
     5    21    22   ar
     6    21    20   ar
     7    22    17   ar
     8    10    11   ar
     9    10     9   ar
    10    11     6   ar
    11     3     2    2
    12    14     9    1
    13     9     8   ar
    14     5     4    1
    15     6     4    1
    16     6     7   ar
    17    25    20    1
    18    20    19   ar
    19     4     1    2
    20    17     1    1
    21    17    18   ar
    22     1     2    1
    23     2    28    1
    24     8     7   ar
    25     8    13    1
    26     7    12    1
    27    19    18   ar
    28    19    24    1
    29    18    23    1
    30    30    28    1
    31    28    29    1
    32    28    31    1
