@<TRIPOS>MOLECULE
GS-677-0.out
 13 12 0 0 0
SMALL
MULLIKEN_CHARGES
****
Gaussian 16 # wB97XD def2tzvp, opt=(calcfc, maxcycles=70, maxstep=10), freq=norama
@<TRIPOS>ATOM
      1 C          -0.3586    0.0546    0.0001 C.2     1  UNL1       -0.0694
      2 C          -1.7427   -0.5499    0.0001 C.2     1  UNL1        0.3764
      3 O          -1.8778   -1.7658    0.0003 O.2     1  UNL1       -0.4858
      4 C           0.6870   -0.7605    0.0000 C.2     1  UNL1       -0.0946
      5 BR          2.4741   -0.2361   -0.0001 Br      1  UNL1       -0.0075
      6 H           0.5238   -1.8277   -0.0000 H       1  UNL1        0.2008
      7 CL         -0.1943    1.7753    0.0001 Cl      1  UNL1       -0.0720
      8 N          -2.7706    0.3027   -0.0001 N.am    1  UNL1       -0.2958
      9 C          -4.1394   -0.1658   -0.0003 C.3     1  UNL1       -0.2524
     10 H          -2.5920    1.2912   -0.0002 H       1  UNL1        0.2652
     11 H          -4.8000    0.6969   -0.0008 H       1  UNL1        0.1512
     12 H          -4.3408   -0.7708   -0.8851 H       1  UNL1        0.1419
     13 H          -4.3412   -0.7700    0.8850 H       1  UNL1        0.1419
@<TRIPOS>BOND
     1    12     9    1
     2    11     9    1
     3     9     8    1
     4     9    13    1
     5    10     8    1
     6     8     2   am
     7     5     4    1
     8     6     4    1
     9     4     1    2
    10     1     2    1
    11     1     7    1
    12     2     3    2
