@<TRIPOS>MOLECULE
GS-649-0.out
 8 7 0 0 0
SMALL
MULLIKEN_CHARGES
****
Gaussian 16 # wB97XD def2tzvp, opt=(calcfc, maxcycles=70, maxstep=10), freq=norama
@<TRIPOS>ATOM
      1 C           1.2167   -0.2710   -0.0000 C.2     1  UNL1       -0.1625
      2 C           2.5616    0.3140    0.0000 C.2     1  UNL1        0.1604
      3 O           3.5764   -0.3430    0.0000 O.2     1  UNL1       -0.3733
      4 C           0.1634    0.5361   -0.0000 C.2     1  UNL1       -0.0864
      5 BR         -1.6069   -0.0689    0.0000 Br      1  UNL1       -0.0179
      6 H           0.2481    1.6150   -0.0000 H       1  UNL1        0.1982
      7 H           1.1310   -1.3505    0.0000 H       1  UNL1        0.1723
      8 H           2.6018    1.4185    0.0000 H       1  UNL1        0.1093
@<TRIPOS>BOND
     1     1     2    1
     2     1     4    2
     3     1     7    1
     4     2     3    2
     5     2     8    1
     6     4     5    1
     7     4     6    1
