@<TRIPOS>MOLECULE
GS-692-0.out
 15 14 0 0 0
SMALL
MULLIKEN_CHARGES
****
Gaussian 16 # wB97XD def2tzvp, opt=(calcfc, maxcycles=70, maxstep=10), freq=norama
@<TRIPOS>ATOM
      1 C          -0.4556   -0.3555    0.0001 C.2     1  UNL1       -0.3302
      2 C          -1.8549    0.1230    0.0001 C.2     1  UNL1        0.4779
      3 O          -2.2440    1.2668    0.0003 O.2     1  UNL1       -0.4367
      4 C           0.6190    0.4297   -0.0000 C.2     1  UNL1        0.1204
      5 BR          2.3186   -0.4362    0.0000 Br      1  UNL1       -0.0724
      6 C           0.7096    1.9131   -0.0002 C.3     1  UNL1       -0.3493
      7 H          -0.2833    2.3526   -0.0004 H       1  UNL1        0.1589
      8 H           1.2608    2.2503    0.8794 H       1  UNL1        0.1534
      9 H           1.2610    2.2501   -0.8798 H       1  UNL1        0.1534
     10 H          -0.3414   -1.4301    0.0002 H       1  UNL1        0.1699
     11 O          -2.6810   -0.9264   -0.0001 O.3     1  UNL1       -0.2772
     12 C          -4.0793   -0.6346   -0.0001 C.3     1  UNL1       -0.1964
     13 H          -4.5804   -1.5979   -0.0003 H       1  UNL1        0.1490
     14 H          -4.3502   -0.0672    0.8895 H       1  UNL1        0.1397
     15 H          -4.3502   -0.0670   -0.8896 H       1  UNL1        0.1397
@<TRIPOS>BOND
     1    15    12    1
     2     9     6    1
     3     7     6    1
     4    13    12    1
     5     6     4    1
     6     6     8    1
     7    12    11    1
     8    12    14    1
     9    11     2    1
    10     4     5    1
    11     4     1    2
    12     2     1    1
    13     2     3    2
    14     1    10    1
