@<TRIPOS>MOLECULE
GS-648-0.out
 28 29 0 0 0
SMALL
MULLIKEN_CHARGES
****
Gaussian 16 # wB97XD def2tzvp, opt=(calcfc, maxcycles=70, maxstep=10), freq=norama
@<TRIPOS>ATOM
      1 C           0.5093   -0.6842    0.2661 C.2     1  UNL1       -0.0201
      2 C          -0.7616   -1.4369    0.5841 C.2     1  UNL1        0.2544
      3 O          -0.7315   -2.4404    1.2645 O.2     1  UNL1       -0.3767
      4 C           1.5651   -1.4522    0.0152 C.2     1  UNL1       -0.0917
      5 BR          3.3121   -0.8513   -0.3208 Br      1  UNL1       -0.0348
      6 H           1.4907   -2.5297    0.0122 H       1  UNL1        0.1882
      7 C           0.4811    0.7961    0.3093 C.ar    1  UNL1        0.1358
      8 C           0.9425    1.5718   -0.7511 C.ar    1  UNL1       -0.2697
      9 C           0.8812    2.9545   -0.6873 C.ar    1  UNL1       -0.1230
     10 C           0.3600    3.5790    0.4371 C.ar    1  UNL1       -0.1354
     11 C          -0.1060    2.8137    1.4962 C.ar    1  UNL1       -0.1464
     12 C          -0.0510    1.4305    1.4298 C.ar    1  UNL1       -0.2195
     13 H           1.3352    1.0907   -1.6376 H       1  UNL1        0.1697
     14 H           1.2377    3.5458   -1.5210 H       1  UNL1        0.1465
     15 H           0.3125    4.6594    0.4854 H       1  UNL1        0.1481
     16 H          -0.5167    3.2932    2.3754 H       1  UNL1        0.1466
     17 H          -0.4217    0.8385    2.2584 H       1  UNL1        0.1556
     18 C          -2.0498   -0.9162    0.0445 C.ar    1  UNL1        0.1048
     19 C          -3.2224   -1.1676    0.7529 C.ar    1  UNL1       -0.1999
     20 C          -4.4392   -0.7241    0.2647 C.ar    1  UNL1       -0.1345
     21 C          -4.4947   -0.0463   -0.9463 C.ar    1  UNL1       -0.1210
     22 C          -3.3317    0.1914   -1.6653 C.ar    1  UNL1       -0.1558
     23 C          -2.1105   -0.2318   -1.1667 C.ar    1  UNL1       -0.1899
     24 H          -3.1682   -1.7038    1.6914 H       1  UNL1        0.1493
     25 H          -5.3460   -0.9079    0.8262 H       1  UNL1        0.1494
     26 H          -5.4469    0.2966   -1.3307 H       1  UNL1        0.1516
     27 H          -3.3753    0.7106   -2.6137 H       1  UNL1        0.1488
     28 H          -1.2076   -0.0426   -1.7321 H       1  UNL1        0.1697
@<TRIPOS>BOND
     1    27    22    1
     2    28    23    1
     3    22    23   ar
     4    22    21   ar
     5    13     8    1
     6    14     9    1
     7    26    21    1
     8    23    18   ar
     9    21    20   ar
    10     8     9   ar
    11     8     7   ar
    12     9    10   ar
    13     5     4    1
    14     6     4    1
    15     4     1    2
    16    18     2    1
    17    18    19   ar
    18    20    19   ar
    19    20    25    1
    20     1     7    1
    21     1     2    1
    22     7    12   ar
    23    10    15    1
    24    10    11   ar
    25     2     3    2
    26    19    24    1
    27    12    11   ar
    28    12    17    1
    29    11    16    1
