@<TRIPOS>MOLECULE
GS-624-0.out
 31 32 0 0 0
SMALL
MULLIKEN_CHARGES
****
Gaussian 16 # wB97XD def2tzvp, opt=(calcfc, maxcycles=70, maxstep=10), freq=norama
@<TRIPOS>ATOM
      1 C          -0.8044   -1.4488    0.4294 C.2     1  UNL1       -0.0117
      2 C           0.6068   -1.5425    0.9628 C.2     1  UNL1        0.2693
      3 O           0.7898   -2.0215    2.0619 O.2     1  UNL1       -0.3788
      4 C          -1.3017   -0.2512    0.1301 C.2     1  UNL1       -0.0642
      5 BR         -3.0826   -0.0674   -0.5463 Br      1  UNL1       -0.0848
      6 C          -0.5910    1.0342    0.3010 C.ar    1  UNL1        0.2452
      7 C          -0.3651    1.8790   -0.7845 C.ar    1  UNL1       -0.2376
      8 C           0.3609    3.0451   -0.6220 C.ar    1  UNL1       -0.1383
      9 C           0.8571    3.3908    0.6295 C.ar    1  UNL1       -0.1325
     10 C           0.6187    2.5662    1.7169 C.ar    1  UNL1       -0.1403
     11 C          -0.1043    1.3931    1.5548 C.ar    1  UNL1       -0.2393
     12 H          -0.7443    1.6095   -1.7624 H       1  UNL1        0.1572
     13 H           0.5446    3.6862   -1.4745 H       1  UNL1        0.1468
     14 H           1.4240    4.3045    0.7542 H       1  UNL1        0.1485
     15 H           0.9935    2.8338    2.6964 H       1  UNL1        0.1471
     16 H          -0.2934    0.7513    2.4058 H       1  UNL1        0.1608
     17 C          -1.5038   -2.7691    0.3484 C.3     1  UNL1       -0.3442
     18 H          -1.4490   -3.2692    1.3166 H       1  UNL1        0.1510
     19 H          -2.5464   -2.6625    0.0620 H       1  UNL1        0.1398
     20 H          -1.0055   -3.4139   -0.3798 H       1  UNL1        0.1504
     21 C           1.7428   -1.1074    0.1045 C.ar    1  UNL1        0.1313
     22 C           2.9786   -0.8621    0.7001 C.ar    1  UNL1       -0.2425
     23 C           4.0578   -0.4729   -0.0724 C.ar    1  UNL1       -0.1142
     24 C           3.9149   -0.3442   -1.4489 C.ar    1  UNL1       -0.1268
     25 C           2.6906   -0.5996   -2.0491 C.ar    1  UNL1       -0.1380
     26 C           1.6041   -0.9717   -1.2741 C.ar    1  UNL1       -0.2216
     27 H           3.0772   -0.9694    1.7723 H       1  UNL1        0.1483
     28 H           5.0122   -0.2688    0.3953 H       1  UNL1        0.1492
     29 H           4.7607   -0.0429   -2.0537 H       1  UNL1        0.1513
     30 H           2.5800   -0.5034   -3.1213 H       1  UNL1        0.1488
     31 H           0.6471   -1.1596   -1.7432 H       1  UNL1        0.1698
@<TRIPOS>BOND
     1    30    25    1
     2    29    24    1
     3    25    24   ar
     4    25    26   ar
     5    12     7    1
     6    31    26    1
     7    13     8    1
     8    24    23   ar
     9    26    21   ar
    10     7     8   ar
    11     7     6   ar
    12     8     9   ar
    13     5     4    1
    14    20    17    1
    15    23    28    1
    16    23    22   ar
    17    19    17    1
    18    21    22   ar
    19    21     2    1
    20     4     6    1
    21     4     1    2
    22     6    11   ar
    23    17     1    1
    24    17    18    1
    25     1     2    1
    26     9    14    1
    27     9    10   ar
    28    22    27    1
    29     2     3    2
    30    11    10   ar
    31    11    16    1
    32    10    15    1
