@<TRIPOS>MOLECULE
GS-6-0.out
 46 48 0 0 0
SMALL
MULLIKEN_CHARGES
****
Gaussian 16 # wb97xd def2tzvp opt=(calcfc, maxcycles=100, maxstep=10) freq=noraman
@<TRIPOS>ATOM
      1 C           0.2655   -0.6435   -0.2115 C.2     1  UNL1       -0.0050
      2 C          -0.3849   -1.9631   -0.5590 C.2     1  UNL1        0.1348
      3 O          -0.8208   -2.1404   -1.6930 O.2     1  UNL1       -0.4759
      4 C          -0.4702    0.4706   -0.0914 C.2     1  UNL1        0.3244
      5 C           0.1332    1.8268   -0.0005 C.ar    1  UNL1        0.0214
      6 C           1.0445    2.2720   -0.9550 C.ar    1  UNL1       -0.2210
      7 C           1.5931    3.5418   -0.8681 C.ar    1  UNL1       -0.1533
      8 C           1.2400    4.3836    0.1772 C.ar    1  UNL1       -0.1243
      9 C           0.3236    3.9530    1.1269 C.ar    1  UNL1       -0.1579
     10 C          -0.2337    2.6878    1.0315 C.ar    1  UNL1       -0.2221
     11 H           1.3235    1.6162   -1.7701 H       1  UNL1        0.1548
     12 H           2.2972    3.8753   -1.6199 H       1  UNL1        0.1412
     13 H           1.6715    5.3740    0.2478 H       1  UNL1        0.1448
     14 H           0.0395    4.6057    1.9427 H       1  UNL1        0.1416
     15 H          -0.9545    2.3582    1.7702 H       1  UNL1        0.1513
     16 C          -1.9567    0.4277   -0.0758 C.ar    1  UNL1        0.1157
     17 C          -2.6513   -0.3917    0.8103 C.ar    1  UNL1       -0.2394
     18 C          -4.0383   -0.4245    0.8053 C.ar    1  UNL1       -0.1618
     19 C          -4.7502    0.3638   -0.0856 C.ar    1  UNL1       -0.1304
     20 C          -4.0674    1.1959   -0.9637 C.ar    1  UNL1       -0.1509
     21 C          -2.6834    1.2345   -0.9513 C.ar    1  UNL1       -0.2437
     22 H          -2.1054   -0.9969    1.5223 H       1  UNL1        0.1676
     23 H          -4.5620   -1.0639    1.5046 H       1  UNL1        0.1406
     24 H          -5.8325    0.3379   -0.0911 H       1  UNL1        0.1448
     25 H          -4.6163    1.8183   -1.6590 H       1  UNL1        0.1423
     26 H          -2.1558    1.8902   -1.6334 H       1  UNL1        0.1527
     27 C           1.7478   -0.6996   -0.1290 C.ar    1  UNL1        0.1043
     28 C           2.4369   -0.0859    0.9163 C.ar    1  UNL1       -0.2259
     29 C           3.8176   -0.1593    0.9920 C.ar    1  UNL1       -0.1516
     30 C           4.5341   -0.8524    0.0257 C.ar    1  UNL1       -0.1250
     31 C           3.8577   -1.4805   -1.0097 C.ar    1  UNL1       -0.1668
     32 C           2.4748   -1.4110   -1.0820 C.ar    1  UNL1       -0.2158
     33 H           1.8836    0.4518    1.6758 H       1  UNL1        0.1674
     34 H           4.3358    0.3226    1.8114 H       1  UNL1        0.1416
     35 H           5.6136   -0.9087    0.0843 H       1  UNL1        0.1451
     36 H           4.4073   -2.0279   -1.7649 H       1  UNL1        0.1425
     37 H           1.9538   -1.9035   -1.8944 H       1  UNL1        0.1455
     38 N          -0.3854   -2.9231    0.3856 N.am    1  UNL1       -0.0647
     39 C          -0.8834   -4.2481    0.0797 C.3     1  UNL1       -0.2858
     40 C           0.0628   -2.7253    1.7480 C.3     1  UNL1       -0.3298
     41 H          -1.0486   -4.3344   -0.9895 H       1  UNL1        0.1506
     42 H          -0.1535   -4.9950    0.3979 H       1  UNL1        0.1414
     43 H          -1.8232   -4.4340    0.6057 H       1  UNL1        0.1434
     44 H           0.2333   -1.6723    1.9521 H       1  UNL1        0.1760
     45 H          -0.7024   -3.0887    2.4373 H       1  UNL1        0.1608
     46 H           0.9882   -3.2754    1.9349 H       1  UNL1        0.1545
@<TRIPOS>BOND
     1    37    32    1
     2    11     6    1
     3    36    31    1
     4     3     2    2
     5    25    20    1
     6    26    21    1
     7    12     7    1
     8    32    31   ar
     9    32    27   ar
    10    31    30   ar
    11    41    39    1
    12    20    21   ar
    13    20    19   ar
    14     6     7   ar
    15     6     5   ar
    16    21    16   ar
    17     7     8   ar
    18     2     1    1
    19     2    38   am
    20     1    27    1
    21     1     4    2
    22    27    28   ar
    23     4    16    1
    24     4     5    1
    25    24    19    1
    26    19    18   ar
    27    16    17   ar
    28     5    10   ar
    29    30    35    1
    30    30    29   ar
    31    39    38    1
    32    39    42    1
    33    39    43    1
    34     8    13    1
    35     8     9   ar
    36    38    40    1
    37    18    17   ar
    38    18    23    1
    39    17    22    1
    40    28    29   ar
    41    28    33    1
    42    29    34    1
    43    10     9   ar
    44    10    15    1
    45     9    14    1
    46    40    46    1
    47    40    44    1
    48    40    45    1
