@<TRIPOS>MOLECULE
GS-620-0.out
 25 25 0 0 0
SMALL
MULLIKEN_CHARGES
****
Gaussian 16 # wB97XD def2tzvp, opt=(calcfc, maxcycles=70, maxstep=10), freq=norama
@<TRIPOS>ATOM
      1 C           0.6429    1.4241    0.0477 C.2     1  UNL1       -0.0054
      2 C          -0.7319    2.0280    0.0914 C.2     1  UNL1        0.3430
      3 O          -1.0731    2.8198    0.9350 O.2     1  UNL1       -0.4050
      4 C           0.7615    0.0980    0.0274 C.2     1  UNL1       -0.0456
      5 BR          2.4876   -0.7218   -0.0351 Br      1  UNL1       -0.0786
      6 C          -0.3525   -0.8724    0.1036 C.ar    1  UNL1        0.2397
      7 C          -0.5546   -1.8167   -0.9005 C.ar    1  UNL1       -0.2277
      8 C          -1.6266   -2.6895   -0.8313 C.ar    1  UNL1       -0.1440
      9 C          -2.5011   -2.6389    0.2471 C.ar    1  UNL1       -0.1378
     10 C          -2.2959   -1.7124    1.2574 C.ar    1  UNL1       -0.1379
     11 C          -1.2243   -0.8343    1.1884 C.ar    1  UNL1       -0.2337
     12 H           0.1236   -1.8583   -1.7436 H       1  UNL1        0.1548
     13 H          -1.7823   -3.4115   -1.6226 H       1  UNL1        0.1470
     14 H          -3.3370   -3.3245    0.3002 H       1  UNL1        0.1486
     15 H          -2.9672   -1.6732    2.1056 H       1  UNL1        0.1481
     16 H          -1.0602   -0.1162    1.9823 H       1  UNL1        0.1631
     17 C           1.7436    2.4371    0.0902 C.3     1  UNL1       -0.3422
     18 H           1.5936    3.1012    0.9426 H       1  UNL1        0.1487
     19 H           2.7213    1.9713    0.1719 H       1  UNL1        0.1398
     20 H           1.7247    3.0540   -0.8112 H       1  UNL1        0.1495
     21 O          -1.5019    1.6354   -0.9136 O.3     1  UNL1       -0.2620
     22 C          -2.8504    2.1132   -0.9076 C.3     1  UNL1       -0.2027
     23 H          -3.3159    1.6863   -1.7905 H       1  UNL1        0.1509
     24 H          -3.3627    1.7753   -0.0072 H       1  UNL1        0.1445
     25 H          -2.8700    3.2009   -0.9547 H       1  UNL1        0.1450
@<TRIPOS>BOND
     1    23    22    1
     2    12     7    1
     3    13     8    1
     4    25    22    1
     5    21    22    1
     6    21     2    1
     7    22    24    1
     8     7     8   ar
     9     7     6   ar
    10     8     9   ar
    11    20    17    1
    12     5     4    1
    13     4     1    2
    14     4     6    1
    15     1    17    1
    16     1     2    1
    17    17    19    1
    18    17    18    1
    19     2     3    2
    20     6    11   ar
    21     9    14    1
    22     9    10   ar
    23    11    10   ar
    24    11    16    1
    25    10    15    1
