@<TRIPOS>MOLECULE
GS-613-0.out
 23 23 0 0 0
SMALL
MULLIKEN_CHARGES
****
Gaussian 16 # wB97XD def2tzvp, opt=(calcfc, maxcycles=70, maxstep=10), freq=norama
@<TRIPOS>ATOM
      1 C           0.0391   -1.6942    0.0346 C.2     1  UNL1       -0.2245
      2 C          -1.4490   -1.8411    0.0911 C.2     1  UNL1        0.3307
      3 O          -1.9563   -2.5899    0.9182 O.2     1  UNL1       -0.4872
      4 C           0.6922   -0.5390    0.0281 C.2     1  UNL1        0.0379
      5 BR          2.6022   -0.5813   -0.0184 Br      1  UNL1       -0.0763
      6 C           0.1012    0.8135    0.0973 C.ar    1  UNL1        0.1018
      7 C           0.3715    1.7686   -0.8800 C.ar    1  UNL1       -0.1888
      8 C          -0.2290    3.0152   -0.8201 C.ar    1  UNL1       -0.1450
      9 C          -1.0918    3.3248    0.2225 C.ar    1  UNL1       -0.1280
     10 C          -1.3529    2.3825    1.2062 C.ar    1  UNL1       -0.1455
     11 C          -0.7596    1.1317    1.1454 C.ar    1  UNL1       -0.1835
     12 H           1.0459    1.5311   -1.6933 H       1  UNL1        0.1561
     13 H          -0.0221    3.7474   -1.5898 H       1  UNL1        0.1489
     14 H          -1.5561    4.3015    0.2699 H       1  UNL1        0.1503
     15 H          -2.0182    2.6209    2.0259 H       1  UNL1        0.1492
     16 H          -0.9614    0.3962    1.9140 H       1  UNL1        0.1603
     17 H           0.5780   -2.6320    0.0699 H       1  UNL1        0.1788
     18 N          -2.1629   -1.1563   -0.8124 N.am    1  UNL1       -0.2868
     19 C          -3.6089   -1.1595   -0.8106 C.3     1  UNL1       -0.2540
     20 H          -1.6799   -0.5489   -1.4504 H       1  UNL1        0.2786
     21 H          -4.0013   -0.6985    0.0981 H       1  UNL1        0.1386
     22 H          -3.9584   -0.5972   -1.6726 H       1  UNL1        0.1497
     23 H          -3.9898   -2.1788   -0.8734 H       1  UNL1        0.1388
@<TRIPOS>BOND
     1    12     7    1
     2    22    19    1
     3    13     8    1
     4    20    18    1
     5     7     8   ar
     6     7     6   ar
     7    23    19    1
     8     8     9   ar
     9    18    19    1
    10    18     2   am
    11    19    21    1
    12     5     4    1
    13     4     1    2
    14     4     6    1
    15     1    17    1
    16     1     2    1
    17     2     3    2
    18     6    11   ar
    19     9    14    1
    20     9    10   ar
    21    11    10   ar
    22    11    16    1
    23    10    15    1
