@<TRIPOS>MOLECULE
GS-627-0.out
 20 20 0 0 0
SMALL
MULLIKEN_CHARGES
****
Gaussian 16 # wB97XD def2tzvp, opt=(calcfc, maxcycles=70, maxstep=10), freq=norama
@<TRIPOS>ATOM
      1 C           0.8291    0.6140    0.0630 C.2     1  UNL1       -0.0304
      2 C           0.4376    2.0744    0.1467 C.2     1  UNL1        0.2468
      3 O           0.7055    2.8458   -0.7559 O.2     1  UNL1       -0.4319
      4 C          -0.0627   -0.3692   -0.0126 C.2     1  UNL1       -0.0377
      5 BR          0.4592   -2.1877   -0.1228 Br      1  UNL1       -0.0338
      6 C          -1.5245   -0.1362   -0.0538 C.ar    1  UNL1        0.1690
      7 C          -2.3575   -0.6689    0.9278 C.ar    1  UNL1       -0.2052
      8 C          -3.7180   -0.4170    0.8945 C.ar    1  UNL1       -0.1357
      9 C          -4.2601    0.3566   -0.1240 C.ar    1  UNL1       -0.1367
     10 C          -3.4363    0.8770   -1.1100 C.ar    1  UNL1       -0.1371
     11 C          -2.0718    0.6318   -1.0776 C.ar    1  UNL1       -0.1983
     12 H          -1.9368   -1.2730    1.7219 H       1  UNL1        0.1582
     13 H          -4.3579   -0.8251    1.6660 H       1  UNL1        0.1498
     14 H          -5.3249    0.5489   -0.1495 H       1  UNL1        0.1507
     15 H          -3.8545    1.4736   -1.9104 H       1  UNL1        0.1503
     16 H          -1.4278    1.0343   -1.8489 H       1  UNL1        0.1640
     17 BR          2.6946    0.3702    0.0164 Br      1  UNL1       -0.0152
     18 N          -0.1794    2.4262    1.2818 N.am    1  UNL1       -0.4165
     19 H          -0.4940    3.3748    1.3977 H       1  UNL1        0.2882
     20 H          -0.3898    1.7551    1.9985 H       1  UNL1        0.3016
@<TRIPOS>BOND
     1    15    10    1
     2    16    11    1
     3    10    11   ar
     4    10     9   ar
     5    11     6   ar
     6     3     2    2
     7    14     9    1
     8     9     8   ar
     9     5     4    1
    10     6     4    1
    11     6     7   ar
    12     4     1    2
    13    17     1    1
    14     1     2    1
    15     2    18   am
    16     8     7   ar
    17     8    13    1
    18     7    12    1
    19    18    19    1
    20    18    20    1
