@<TRIPOS>MOLECULE
GS-619-0.out
 23 23 0 0 0
SMALL
MULLIKEN_CHARGES
****
Gaussian 16 # wB97XD def2tzvp, opt=(calcfc, maxcycles=70, maxstep=10), freq=norama
@<TRIPOS>ATOM
      1 C          -1.2402    1.0494    0.0751 C.2     1  UNL1        0.0016
      2 C          -0.4468    2.3345    0.1611 C.2     1  UNL1        0.2508
      3 O          -0.5522    3.1874   -0.7068 O.2     1  UNL1       -0.4530
      4 C          -0.5970   -0.1124   -0.0010 C.2     1  UNL1       -0.0425
      5 BR         -1.5654   -1.7620   -0.1156 Br      1  UNL1       -0.0905
      6 C           0.8720   -0.2896   -0.0527 C.ar    1  UNL1        0.1503
      7 C           1.5418   -1.0166    0.9293 C.ar    1  UNL1       -0.2059
      8 C           2.9201   -1.1412    0.8875 C.ar    1  UNL1       -0.1376
      9 C           3.6433   -0.5529   -0.1421 C.ar    1  UNL1       -0.1392
     10 C           2.9811    0.1597   -1.1300 C.ar    1  UNL1       -0.1413
     11 C           1.6010    0.2899   -1.0876 C.ar    1  UNL1       -0.1986
     12 H           0.9806   -1.4776    1.7328 H       1  UNL1        0.1549
     13 H           3.4322   -1.6985    1.6614 H       1  UNL1        0.1475
     14 H           4.7205   -0.6541   -0.1749 H       1  UNL1        0.1487
     15 H           3.5379    0.6144   -1.9392 H       1  UNL1        0.1478
     16 H           1.0830    0.8449   -1.8596 H       1  UNL1        0.1589
     17 C          -2.7187    1.2741    0.0372 C.3     1  UNL1       -0.3389
     18 H          -2.9591    1.9540   -0.7817 H       1  UNL1        0.1472
     19 H          -3.2710    0.3483   -0.0963 H       1  UNL1        0.1375
     20 H          -3.0505    1.7501    0.9630 H       1  UNL1        0.1476
     21 N           0.3045    2.4915    1.2614 N.am    1  UNL1       -0.4233
     22 H           0.8656    3.3203    1.3619 H       1  UNL1        0.2819
     23 H           0.3968    1.7599    1.9426 H       1  UNL1        0.2959
@<TRIPOS>BOND
     1    15    10    1
     2    16    11    1
     3    10    11   ar
     4    10     9   ar
     5    11     6   ar
     6    18    17    1
     7     3     2    2
     8    14     9    1
     9     9     8   ar
    10     5     4    1
    11    19    17    1
    12     6     4    1
    13     6     7   ar
    14     4     1    2
    15    17     1    1
    16    17    20    1
    17     1     2    1
    18     2    21   am
    19     8     7   ar
    20     8    13    1
    21     7    12    1
    22    21    22    1
    23    21    23    1
