@<TRIPOS>MOLECULE
GS-600-0.out
 21 21 0 0 0
SMALL
MULLIKEN_CHARGES
****
Gaussian 16 # wB97XD def2tzvp, opt=(calcfc, maxcycles=70, maxstep=10), freq=norama
@<TRIPOS>ATOM
      1 C          -1.2693   -0.5063    0.1047 C.2     1  UNL1       -0.0230
      2 C          -0.0163   -0.5076    0.9540 C.2     1  UNL1        0.3557
      3 O          -0.1062   -0.7865    2.1268 O.2     1  UNL1       -0.3595
      4 C          -2.0174    0.5554   -0.1586 C.2     1  UNL1        0.0286
      5 C          -3.2827    0.6266   -0.9360 C.3     1  UNL1       -0.3486
      6 H          -3.5705   -0.3559   -1.3021 H       1  UNL1        0.1414
      7 H          -4.0836    1.0213   -0.3091 H       1  UNL1        0.1571
      8 H          -3.1593    1.3006   -1.7852 H       1  UNL1        0.1566
      9 CL         -1.4688    2.0872    0.4742 Cl      1  UNL1       -0.0857
     10 CL         -1.6804   -2.0903   -0.4682 Cl      1  UNL1       -0.0677
     11 C           1.2747   -0.2056    0.2904 C.ar    1  UNL1        0.0304
     12 C           2.4408   -0.2103    1.0560 C.ar    1  UNL1       -0.2097
     13 C           3.6590    0.0654    0.4644 C.ar    1  UNL1       -0.1199
     14 C           3.7220    0.3452   -0.8961 C.ar    1  UNL1       -0.1178
     15 C           2.5663    0.3499   -1.6633 C.ar    1  UNL1       -0.1482
     16 C           1.3437    0.0763   -1.0722 C.ar    1  UNL1       -0.1756
     17 H           2.3767   -0.4309    2.1132 H       1  UNL1        0.1518
     18 H           4.5624    0.0632    1.0599 H       1  UNL1        0.1523
     19 H           4.6769    0.5604   -1.3584 H       1  UNL1        0.1545
     20 H           2.6169    0.5677   -2.7218 H       1  UNL1        0.1522
     21 H           0.4430    0.0837   -1.6726 H       1  UNL1        0.1751
@<TRIPOS>BOND
     1    20    15    1
     2     8     5    1
     3    21    16    1
     4    15    16   ar
     5    15    14   ar
     6    19    14    1
     7     6     5    1
     8    16    11   ar
     9     5     7    1
    10     5     4    1
    11    14    13   ar
    12    10     1    1
    13     4     1    2
    14     4     9    1
    15     1     2    1
    16    11     2    1
    17    11    12   ar
    18    13    12   ar
    19    13    18    1
    20     2     3    2
    21    12    17    1
