@<TRIPOS>MOLECULE
GS-652-0.out
 12 11 0 0 0
SMALL
MULLIKEN_CHARGES
****
Gaussian 16 # wB97XD def2tzvp, opt=(calcfc, maxcycles=70, maxstep=10), freq=norama
@<TRIPOS>ATOM
      1 C          -0.4019   -0.3495   -0.0000 C.2     1  UNL1       -0.2865
      2 C          -1.7759    0.2040   -0.0000 C.2     1  UNL1        0.4503
      3 O          -2.0582    1.3778   -0.0000 O.2     1  UNL1       -0.4254
      4 C           0.6313    0.4762    0.0000 C.2     1  UNL1       -0.0421
      5 BR          2.4109   -0.1075    0.0000 Br      1  UNL1       -0.0296
      6 H           0.5214    1.5516    0.0000 H       1  UNL1        0.1944
      7 H          -0.2904   -1.4249   -0.0000 H       1  UNL1        0.1755
      8 O          -2.6755   -0.7764   -0.0000 O.3     1  UNL1       -0.2751
      9 C          -4.0489   -0.3789    0.0000 C.3     1  UNL1       -0.1947
     10 H          -4.6221   -1.3009    0.0000 H       1  UNL1        0.1500
     11 H          -4.2744    0.2071    0.8901 H       1  UNL1        0.1416
     12 H          -4.2744    0.2071   -0.8901 H       1  UNL1        0.1416
@<TRIPOS>BOND
     1    12     9    1
     2     7     1    1
     3     1     2    1
     4     1     4    2
     5     2     3    2
     6     2     8    1
     7     8     9    1
     8     4     5    1
     9     4     6    1
    10     9    10    1
    11     9    11    1
