@<TRIPOS>MOLECULE
GS-647-0.out
 30 31 0 0 0
SMALL
MULLIKEN_CHARGES
****
Gaussian 16 # wB97XD def2tzvp, opt=(calcfc, maxcycles=70, maxstep=10), freq=norama
@<TRIPOS>ATOM
      1 C          -0.8311   -0.6421    0.0001 C.2     1  UNL1       -0.0889
      2 C           0.6038   -1.1165   -0.0019 C.2     1  UNL1        0.4160
      3 O           0.8922   -2.3011   -0.0034 O.2     1  UNL1       -0.4816
      4 C          -1.7515   -1.5975    0.0101 C.2     1  UNL1       -0.0589
      5 BR         -3.5995   -1.2834    0.0141 Br      1  UNL1       -0.0297
      6 H          -1.4852   -2.6441    0.0163 H       1  UNL1        0.1879
      7 C          -1.1422    0.8107   -0.0091 C.ar    1  UNL1       -0.0053
      8 C          -1.2850    1.5064    1.1886 C.ar    1  UNL1       -0.1785
      9 C          -1.5617    2.8651    1.1785 C.ar    1  UNL1       -0.1518
     10 C          -1.6950    3.5391   -0.0270 C.ar    1  UNL1       -0.1063
     11 C          -1.5508    2.8515   -1.2235 C.ar    1  UNL1       -0.1521
     12 C          -1.2739    1.4930   -1.2158 C.ar    1  UNL1       -0.1781
     13 H          -1.1799    0.9789    2.1286 H       1  UNL1        0.1493
     14 H          -1.6736    3.3973    2.1143 H       1  UNL1        0.1479
     15 H          -1.9101    4.5999   -0.0339 H       1  UNL1        0.1499
     16 H          -1.6543    3.3731   -2.1662 H       1  UNL1        0.1479
     17 H          -1.1600    0.9549   -2.1488 H       1  UNL1        0.1492
     18 N           1.5109   -0.1078   -0.0009 N.am    1  UNL1       -0.2427
     19 C           2.9141   -0.1710    0.0022 C.ar    1  UNL1        0.2923
     20 C           3.5961    1.0456    0.0583 C.ar    1  UNL1       -0.3061
     21 C           4.9783    1.0739    0.0612 C.ar    1  UNL1       -0.0996
     22 C           5.7035   -0.1093    0.0087 C.ar    1  UNL1       -0.1828
     23 C           5.0247   -1.3158   -0.0473 C.ar    1  UNL1       -0.1119
     24 C           3.6371   -1.3606   -0.0514 C.ar    1  UNL1       -0.2849
     25 H           1.1278    0.8246    0.0085 H       1  UNL1        0.2683
     26 H           3.0365    1.9728    0.1006 H       1  UNL1        0.1482
     27 H           5.4902    2.0266    0.1053 H       1  UNL1        0.1471
     28 H           6.7854   -0.0884    0.0114 H       1  UNL1        0.1444
     29 H           5.5778   -2.2458   -0.0893 H       1  UNL1        0.1451
     30 H           3.1182   -2.3037   -0.0955 H       1  UNL1        0.1655
@<TRIPOS>BOND
     1    16    11    1
     2    17    12    1
     3    11    12   ar
     4    11    10   ar
     5    12     7   ar
     6    30    24    1
     7    29    23    1
     8    24    23   ar
     9    24    19   ar
    10    23    22   ar
    11    15    10    1
    12    10     9   ar
    13     7     1    1
    14     7     8   ar
    15     3     2    2
    16     2    18   am
    17     2     1    1
    18    18    19    1
    19    18    25    1
    20     1     4    2
    21    19    20   ar
    22    22    28    1
    23    22    21   ar
    24     4     5    1
    25     4     6    1
    26    20    21   ar
    27    20    26    1
    28    21    27    1
    29     9     8   ar
    30     9    14    1
    31     8    13    1
