@<TRIPOS>MOLECULE
GS-658-0.out
 14 13 0 0 0
SMALL
MULLIKEN_CHARGES
****
Gaussian 16 # wB97XD def2tzvp, opt=(calcfc, maxcycles=70, maxstep=10), freq=norama
@<TRIPOS>ATOM
      1 C           0.8026    0.3725    0.0000 C.2     1  UNL1       -0.0689
      2 C           2.2215   -0.1149   -0.0000 C.2     1  UNL1        0.2757
      3 O           3.1212    0.6992   -0.0000 O.2     1  UNL1       -0.3905
      4 C          -0.1732   -0.5313   -0.0000 C.2     1  UNL1       -0.0975
      5 BR         -2.0139   -0.1366   -0.0000 Br      1  UNL1       -0.0511
      6 H           0.0000   -1.5959   -0.0000 H       1  UNL1        0.1955
      7 C           0.6221    1.8558    0.0000 C.3     1  UNL1       -0.3403
      8 H           1.1026    2.2924   -0.8766 H       1  UNL1        0.1417
      9 H          -0.4290    2.1325    0.0000 H       1  UNL1        0.1363
     10 H           1.1026    2.2924    0.8766 H       1  UNL1        0.1417
     11 C           2.5193   -1.5916    0.0000 C.3     1  UNL1       -0.4115
     12 H           2.0938   -2.0733   -0.8815 H       1  UNL1        0.1629
     13 H           3.5972   -1.7315    0.0000 H       1  UNL1        0.1432
     14 H           2.0938   -2.0733    0.8815 H       1  UNL1        0.1629
@<TRIPOS>BOND
     1    12    11    1
     2     8     7    1
     3     3     2    2
     4     6     4    1
     5     1     2    1
     6     1     4    2
     7     1     7    1
     8     2    11    1
     9     4     5    1
    10     7     9    1
    11     7    10    1
    12    11    13    1
    13    11    14    1
