@<TRIPOS>MOLECULE
GS-669-0.out
 13 12 0 0 0
SMALL
MULLIKEN_CHARGES
****
Gaussian 16 # wB97XD def2tzvp, opt=(calcfc, maxcycles=70, maxstep=10), freq=norama
@<TRIPOS>ATOM
      1 C          -0.3335   -0.2609    0.0000 C.2     1  UNL1       -0.1084
      2 C          -1.7043   -0.8986    0.0000 C.2     1  UNL1        0.3770
      3 O          -1.8060   -2.1180    0.0000 O.2     1  UNL1       -0.4856
      4 C           0.7223   -1.0626   -0.0000 C.2     1  UNL1       -0.0868
      5 BR          2.5104   -0.5412   -0.0000 Br      1  UNL1       -0.0038
      6 H           0.5673   -2.1317    0.0000 H       1  UNL1        0.2007
      7 BR         -0.1742    1.6203    0.0000 Br      1  UNL1       -0.0458
      8 N          -2.7594   -0.0798   -0.0000 N.am    1  UNL1       -0.2951
      9 C          -4.1121   -0.5931   -0.0000 C.3     1  UNL1       -0.2535
     10 H          -2.6158    0.9144   -0.0000 H       1  UNL1        0.2666
     11 H          -4.8003    0.2478   -0.0000 H       1  UNL1        0.1511
     12 H          -4.2939   -1.2040   -0.8851 H       1  UNL1        0.1417
     13 H          -4.2940   -1.2039    0.8850 H       1  UNL1        0.1417
@<TRIPOS>BOND
     1    12     9    1
     2    11     9    1
     3    10     8    1
     4     9     8    1
     5     9    13    1
     6     5     4    1
     7     8     2   am
     8     4     6    1
     9     4     1    2
    10     1     7    1
    11     1     2    1
    12     2     3    2
