@<TRIPOS>MOLECULE
GS-684-0.out
 25 25 0 0 0
SMALL
MULLIKEN_CHARGES
****
Gaussian 16 # wB97XD def2tzvp, opt=(calcfc, maxcycles=70, maxstep=10), freq=norama
@<TRIPOS>ATOM
      1 C          -0.2395   -0.6547    0.0604 C.2     1  UNL1       -0.1212
      2 C          -1.4667   -1.5094    0.1466 C.2     1  UNL1        0.4209
      3 O          -1.5479   -2.5773    0.7033 O.2     1  UNL1       -0.4221
      4 C           0.9657   -1.2257   -0.0045 C.2     1  UNL1        0.0545
      5 BR          2.5125   -0.1082   -0.0372 Br      1  UNL1       -0.0659
      6 C           1.3172   -2.6731   -0.0661 C.3     1  UNL1       -0.3661
      7 H           0.4318   -3.2898   -0.1825 H       1  UNL1        0.1498
      8 H           2.0008   -2.8507   -0.8968 H       1  UNL1        0.1506
      9 H           1.8302   -2.9701    0.8509 H       1  UNL1        0.1558
     10 C          -0.4653    0.8178    0.0564 C.ar    1  UNL1        0.2229
     11 C          -0.4054    1.5438   -1.1285 C.ar    1  UNL1       -0.2312
     12 C          -0.6257    2.9121   -1.1226 C.ar    1  UNL1       -0.1434
     13 C          -0.9102    3.5670    0.0679 C.ar    1  UNL1       -0.1308
     14 C          -0.9768    2.8467    1.2516 C.ar    1  UNL1       -0.1497
     15 C          -0.7590    1.4767    1.2452 C.ar    1  UNL1       -0.2070
     16 H          -0.1822    1.0323   -2.0567 H       1  UNL1        0.1489
     17 H          -0.5749    3.4685   -2.0500 H       1  UNL1        0.1446
     18 H          -1.0808    4.6361    0.0722 H       1  UNL1        0.1469
     19 H          -1.1986    3.3513    2.1834 H       1  UNL1        0.1449
     20 H          -0.8109    0.9156    2.1705 H       1  UNL1        0.1460
     21 O          -2.4958   -0.9243   -0.4601 O.3     1  UNL1       -0.2709
     22 C          -3.7412   -1.6242   -0.4201 C.3     1  UNL1       -0.2098
     23 H          -4.4494   -0.9918   -0.9467 H       1  UNL1        0.1492
     24 H          -3.6515   -2.5892   -0.9173 H       1  UNL1        0.1411
     25 H          -4.0590   -1.7735    0.6110 H       1  UNL1        0.1421
@<TRIPOS>BOND
     1    16    11    1
     2    17    12    1
     3    11    12   ar
     4    11    10   ar
     5    12    13   ar
     6    23    22    1
     7    24    22    1
     8     8     6    1
     9    21    22    1
    10    21     2    1
    11    22    25    1
    12     7     6    1
    13     6     4    1
    14     6     9    1
    15     5     4    1
    16     4     1    2
    17    10     1    1
    18    10    15   ar
    19     1     2    1
    20    13    18    1
    21    13    14   ar
    22     2     3    2
    23    15    14   ar
    24    15    20    1
    25    14    19    1
