@<TRIPOS>MOLECULE
GS-636-0.out
 22 22 0 0 0
SMALL
MULLIKEN_CHARGES
****
Gaussian 16 # wB97XD def2tzvp, opt=(calcfc, maxcycles=70, maxstep=10), freq=norama
@<TRIPOS>ATOM
      1 C           0.9871    0.9042    0.0252 C.2     1  UNL1        0.0166
      2 C           0.0637    2.0906    0.0625 C.2     1  UNL1        0.3287
      3 O           0.1750    2.9841    0.8596 O.2     1  UNL1       -0.3829
      4 C           0.5500   -0.3547    0.0147 C.2     1  UNL1       -0.0435
      5 BR          1.7646   -1.8034   -0.0395 Br      1  UNL1       -0.0250
      6 C          -0.8768   -0.7302    0.1008 C.ar    1  UNL1        0.2446
      7 C          -1.4720   -1.5057   -0.8912 C.ar    1  UNL1       -0.2249
      8 C          -2.8169   -1.8213   -0.8102 C.ar    1  UNL1       -0.1390
      9 C          -3.5755   -1.3784    0.2661 C.ar    1  UNL1       -0.1363
     10 C          -2.9829   -0.6201    1.2637 C.ar    1  UNL1       -0.1314
     11 C          -1.6366   -0.2982    1.1843 C.ar    1  UNL1       -0.2328
     12 H          -0.8833   -1.8507   -1.7318 H       1  UNL1        0.1579
     13 H          -3.2761   -2.4143   -1.5904 H       1  UNL1        0.1495
     14 H          -4.6264   -1.6297    0.3276 H       1  UNL1        0.1507
     15 H          -3.5660   -0.2807    2.1098 H       1  UNL1        0.1508
     16 H          -1.1711    0.2854    1.9689 H       1  UNL1        0.1674
     17 CL          2.6512    1.3453    0.0706 Cl      1  UNL1       -0.0507
     18 O          -0.8497    2.0322   -0.8900 O.3     1  UNL1       -0.2532
     19 C          -1.8454    3.0626   -0.8812 C.3     1  UNL1       -0.1985
     20 H          -2.5003    2.8406   -1.7175 H       1  UNL1        0.1544
     21 H          -2.4002    3.0353    0.0559 H       1  UNL1        0.1482
     22 H          -1.3804    4.0388   -1.0073 H       1  UNL1        0.1493
@<TRIPOS>BOND
     1    12     7    1
     2    20    19    1
     3    13     8    1
     4    22    19    1
     5     7     8   ar
     6     7     6   ar
     7    18    19    1
     8    18     2    1
     9    19    21    1
    10     8     9   ar
    11     5     4    1
    12     4     1    2
    13     4     6    1
    14     1     2    1
    15     1    17    1
    16     2     3    2
    17     6    11   ar
    18     9    14    1
    19     9    10   ar
    20    11    10   ar
    21    11    16    1
    22    10    15    1
