@<TRIPOS>MOLECULE
GS-667-0.out
 10 9 0 0 0
SMALL
MULLIKEN_CHARGES
****
Gaussian 16 # wB97XD def2tzvp, opt=(calcfc, maxcycles=70, maxstep=10), freq=norama
@<TRIPOS>ATOM
      1 C          -0.6090    0.3950    0.0000 C.2     1  UNL1       -0.0751
      2 C          -1.8834    1.2091    0.0000 C.2     1  UNL1        0.3150
      3 O          -1.8232    2.4282    0.0000 O.2     1  UNL1       -0.4626
      4 C           0.5438    1.0501   -0.0000 C.2     1  UNL1       -0.0831
      5 BR          2.2457    0.2959    0.0000 Br      1  UNL1        0.0002
      6 H           0.5325    2.1304   -0.0000 H       1  UNL1        0.2031
      7 BR         -0.7033   -1.4897    0.0000 Br      1  UNL1       -0.0435
      8 N          -3.0380    0.5320   -0.0000 N.am    1  UNL1       -0.4298
      9 H          -3.8982    1.0519    0.0000 H       1  UNL1        0.2890
     10 H          -3.0773   -0.4712    0.0000 H       1  UNL1        0.2867
@<TRIPOS>BOND
     1     1     2    1
     2     1     4    2
     3     1     7    1
     4     2     3    2
     5     2     8   am
     6     4     5    1
     7     4     6    1
     8     8     9    1
     9     8    10    1
