@<TRIPOS>MOLECULE
GS-632-0.out
 28 29 0 0 0
SMALL
MULLIKEN_CHARGES
****
Gaussian 16 # wB97XD def2tzvp, opt=(calcfc, maxcycles=70, maxstep=10), freq=norama
@<TRIPOS>ATOM
      1 C          -0.8846   -0.6715    0.3402 C.2     1  UNL1       -0.0300
      2 C           0.3340   -1.3870    0.8840 C.2     1  UNL1        0.2592
      3 O           0.2705   -1.9344    1.9601 O.2     1  UNL1       -0.3525
      4 C          -0.8898    0.6336    0.0796 C.2     1  UNL1       -0.0730
      5 BR         -2.4192    1.5176   -0.6002 Br      1  UNL1       -0.0270
      6 C           0.2855    1.4981    0.3212 C.ar    1  UNL1        0.2482
      7 C           0.8660    2.2164   -0.7225 C.ar    1  UNL1       -0.2314
      8 C           2.0044    2.9685   -0.4969 C.ar    1  UNL1       -0.1354
      9 C           2.5650    3.0242    0.7737 C.ar    1  UNL1       -0.1275
     10 C           1.9792    2.3284    1.8188 C.ar    1  UNL1       -0.1393
     11 C           0.8414    1.5672    1.5952 C.ar    1  UNL1       -0.2287
     12 H           0.4350    2.1686   -1.7146 H       1  UNL1        0.1609
     13 H           2.4595    3.5113   -1.3151 H       1  UNL1        0.1494
     14 H           3.4554    3.6148    0.9468 H       1  UNL1        0.1507
     15 H           2.4051    2.3761    2.8125 H       1  UNL1        0.1498
     16 H           0.3806    1.0274    2.4125 H       1  UNL1        0.1656
     17 BR         -2.3749   -1.8041    0.1400 Br      1  UNL1       -0.0142
     18 C           1.5618   -1.4110    0.0487 C.ar    1  UNL1        0.1259
     19 C           1.5162   -1.1845   -1.3244 C.ar    1  UNL1       -0.2155
     20 C           2.6775   -1.2488   -2.0763 C.ar    1  UNL1       -0.1419
     21 C           3.8891   -1.5212   -1.4579 C.ar    1  UNL1       -0.1213
     22 C           3.9403   -1.7430   -0.0869 C.ar    1  UNL1       -0.1152
     23 C           2.7797   -1.6974    0.6631 C.ar    1  UNL1       -0.2344
     24 H           0.5738   -0.9643   -1.8088 H       1  UNL1        0.1711
     25 H           2.6374   -1.0811   -3.1445 H       1  UNL1        0.1508
     26 H           4.7978   -1.5601   -2.0450 H       1  UNL1        0.1531
     27 H           4.8870   -1.9506    0.3944 H       1  UNL1        0.1511
     28 H           2.8048   -1.8702    1.7309 H       1  UNL1        0.1516
@<TRIPOS>BOND
     1    25    20    1
     2    20    21   ar
     3    20    19   ar
     4    26    21    1
     5    24    19    1
     6    12     7    1
     7    21    22   ar
     8    19    18   ar
     9    13     8    1
    10     7     8   ar
    11     7     6   ar
    12     5     4    1
    13     8     9   ar
    14    22    27    1
    15    22    23   ar
    16    18    23   ar
    17    18     2    1
    18     4     6    1
    19     4     1    2
    20    17     1    1
    21     6    11   ar
    22     1     2    1
    23    23    28    1
    24     9    14    1
    25     9    10   ar
    26     2     3    2
    27    11    10   ar
    28    11    16    1
    29    10    15    1
