@<TRIPOS>MOLECULE
GS-685-0.out
 26 26 0 0 0
SMALL
MULLIKEN_CHARGES
****
Gaussian 16 # wB97XD def2tzvp, opt=(calcfc, maxcycles=70, maxstep=10), freq=norama
@<TRIPOS>ATOM
      1 C           0.2392   -0.6484    0.0660 C.2     1  UNL1       -0.0721
      2 C           1.4992   -1.4797    0.1560 C.2     1  UNL1        0.3440
      3 O           1.5623   -2.5464    0.7551 O.2     1  UNL1       -0.4905
      4 C          -0.9525   -1.2413   -0.0105 C.2     1  UNL1        0.0398
      5 BR         -2.5300   -0.1576   -0.0287 Br      1  UNL1       -0.0826
      6 C          -1.2746   -2.6948   -0.0931 C.3     1  UNL1       -0.3649
      7 H          -1.8087   -3.0126    0.8045 H       1  UNL1        0.1512
      8 H          -1.9285   -2.8791   -0.9466 H       1  UNL1        0.1466
      9 H          -0.3703   -3.2877   -0.1865 H       1  UNL1        0.1486
     10 C           0.4307    0.8285    0.0660 C.ar    1  UNL1        0.0894
     11 C           0.7769    1.4865    1.2431 C.ar    1  UNL1       -0.1753
     12 C           0.9818    2.8574    1.2454 C.ar    1  UNL1       -0.1569
     13 C           0.8565    3.5826    0.0684 C.ar    1  UNL1       -0.1223
     14 C           0.5242    2.9316   -1.1104 C.ar    1  UNL1       -0.1358
     15 C           0.3116    1.5609   -1.1118 C.ar    1  UNL1       -0.2087
     16 H           0.8803    0.9210    2.1613 H       1  UNL1        0.1470
     17 H           1.2422    3.3602    2.1680 H       1  UNL1        0.1459
     18 H           1.0201    4.6527    0.0703 H       1  UNL1        0.1484
     19 H           0.4279    3.4908   -2.0323 H       1  UNL1        0.1466
     20 H           0.0469    1.0524   -2.0310 H       1  UNL1        0.1546
     21 N           2.5665   -0.9463   -0.4610 N.am    1  UNL1       -0.2849
     22 C           3.8591   -1.5931   -0.4457 C.3     1  UNL1       -0.2632
     23 H           2.4725   -0.0581   -0.9211 H       1  UNL1        0.2727
     24 H           4.2209   -1.7145    0.5765 H       1  UNL1        0.1377
     25 H           3.8078   -2.5785   -0.9110 H       1  UNL1        0.1365
     26 H           4.5620   -0.9762   -0.9996 H       1  UNL1        0.1481
@<TRIPOS>BOND
     1    19    14    1
     2    20    15    1
     3    15    14   ar
     4    15    10   ar
     5    14    13   ar
     6    26    22    1
     7     8     6    1
     8    23    21    1
     9    25    22    1
    10    21    22    1
    11    21     2   am
    12    22    24    1
    13     9     6    1
    14     6     4    1
    15     6     7    1
    16     5     4    1
    17     4     1    2
    18     1    10    1
    19     1     2    1
    20    10    11   ar
    21    13    18    1
    22    13    12   ar
    23     2     3    2
    24    11    12   ar
    25    11    16    1
    26    12    17    1
