@<TRIPOS>MOLECULE
GS-654-0.out
 16 15 0 0 0
SMALL
MULLIKEN_CHARGES
****
Gaussian 16 # wB97XD def2tzvp, opt=(calcfc, maxcycles=70, maxstep=10), freq=norama
@<TRIPOS>ATOM
      1 C          -0.1649    0.1460    0.0692 C.2     1  UNL1       -0.2903
      2 C          -1.4976   -0.5294    0.0145 C.2     1  UNL1        0.3487
      3 O          -1.5782   -1.7559   -0.0005 O.2     1  UNL1       -0.5158
      4 C           0.9279   -0.5859   -0.0643 C.2     1  UNL1       -0.0627
      5 BR          2.6604    0.1379    0.0045 Br      1  UNL1       -0.0481
      6 H           0.9050   -1.6545   -0.2214 H       1  UNL1        0.1875
      7 H          -0.0960    1.2119    0.2286 H       1  UNL1        0.1818
      8 N          -2.5803    0.2760   -0.0072 N.am    1  UNL1       -0.0917
      9 C          -3.9098   -0.3034    0.0243 C.3     1  UNL1       -0.2961
     10 C          -2.5118    1.7300   -0.0466 C.3     1  UNL1       -0.3302
     11 H          -3.8307   -1.3782    0.1487 H       1  UNL1        0.1494
     12 H          -4.4769    0.1170    0.8570 H       1  UNL1        0.1469
     13 H          -4.4419   -0.0872   -0.9048 H       1  UNL1        0.1450
     14 H          -1.8297    2.0794   -0.8199 H       1  UNL1        0.1565
     15 H          -3.5023    2.1072   -0.2896 H       1  UNL1        0.1616
     16 H          -2.2156    2.1505    0.9167 H       1  UNL1        0.1577
@<TRIPOS>BOND
     1    13     9    1
     2    14    10    1
     3    15    10    1
     4     6     4    1
     5     4     5    1
     6     4     1    2
     7    10     8    1
     8    10    16    1
     9     8     2   am
    10     8     9    1
    11     3     2    2
    12     2     1    1
    13     9    11    1
    14     9    12    1
    15     1     7    1
