@<TRIPOS>MOLECULE
GS-645-0.out
 23 23 0 0 0
SMALL
MULLIKEN_CHARGES
****
Gaussian 16 # wB97XD def2tzvp, opt=(calcfc, maxcycles=70, maxstep=10), freq=norama
@<TRIPOS>ATOM
      1 C           0.3308   -0.7101    0.0000 C.2     1  UNL1       -0.0901
      2 C           1.6855   -1.3781    0.0000 C.2     1  UNL1        0.3647
      3 O           1.8138   -2.5966    0.0001 O.2     1  UNL1       -0.4989
      4 C          -0.7162   -1.5235    0.0000 C.2     1  UNL1       -0.0714
      5 BR         -2.5029   -0.9489    0.0000 Br      1  UNL1       -0.0384
      6 H          -0.6020   -2.5974    0.0000 H       1  UNL1        0.1864
      7 C           0.2340    0.7722    0.0000 C.ar    1  UNL1        0.0398
      8 C           0.1967    1.4742   -1.2018 C.ar    1  UNL1       -0.1853
      9 C           0.1157    2.8584   -1.2009 C.ar    1  UNL1       -0.1478
     10 C           0.0749    3.5524    0.0000 C.ar    1  UNL1       -0.1147
     11 C           0.1161    2.8585    1.2009 C.ar    1  UNL1       -0.1478
     12 C           0.1971    1.4742    1.2019 C.ar    1  UNL1       -0.1853
     13 H           0.2288    0.9313   -2.1385 H       1  UNL1        0.1482
     14 H           0.0839    3.3953   -2.1403 H       1  UNL1        0.1470
     15 H           0.0121    4.6330    0.0000 H       1  UNL1        0.1491
     16 H           0.0847    3.3953    2.1403 H       1  UNL1        0.1470
     17 H           0.2295    0.9313    2.1386 H       1  UNL1        0.1482
     18 N           2.7349   -0.5432   -0.0001 N.am    1  UNL1       -0.2890
     19 C           4.0964   -1.0286   -0.0002 C.3     1  UNL1       -0.2661
     20 H           2.5706    0.4481   -0.0002 H       1  UNL1        0.2783
     21 H           4.7693   -0.1751   -0.0004 H       1  UNL1        0.1490
     22 H           4.2921   -1.6363    0.8845 H       1  UNL1        0.1388
     23 H           4.2919   -1.6365   -0.8847 H       1  UNL1        0.1388
@<TRIPOS>BOND
     1    14     9    1
     2    13     8    1
     3     8     9   ar
     4     8     7   ar
     5     9    10   ar
     6    23    19    1
     7    21    19    1
     8    20    18    1
     9    19    18    1
    10    19    22    1
    11    18     2   am
    12     6     4    1
    13     4     5    1
    14     4     1    2
    15    15    10    1
    16    10    11   ar
    17     7     1    1
    18     7    12   ar
    19     2     1    1
    20     2     3    2
    21    11    12   ar
    22    11    16    1
    23    12    17    1
