@<TRIPOS>MOLECULE
GS-675-0.out
 10 9 0 0 0
SMALL
MULLIKEN_CHARGES
****
Gaussian 16 # wB97XD def2tzvp, opt=(calcfc, maxcycles=70, maxstep=10), freq=norama
@<TRIPOS>ATOM
      1 C          -0.7513    0.0082   -0.0000 C.2     1  UNL1       -0.0373
      2 C          -2.1129   -0.6454   -0.0000 C.2     1  UNL1        0.3184
      3 O          -2.2043   -1.8622   -0.0000 O.2     1  UNL1       -0.4630
      4 C           0.3221   -0.7702    0.0000 C.2     1  UNL1       -0.0924
      5 BR          2.0886   -0.1839    0.0000 Br      1  UNL1       -0.0034
      6 H           0.1976   -1.8427    0.0000 H       1  UNL1        0.2034
      7 CL         -0.6498    1.7327   -0.0000 Cl      1  UNL1       -0.0701
      8 N          -3.1708    0.1744    0.0000 N.am    1  UNL1       -0.4304
      9 H          -4.0911   -0.2297   -0.0000 H       1  UNL1        0.2894
     10 H          -3.0793    1.1740   -0.0000 H       1  UNL1        0.2856
@<TRIPOS>BOND
     1     3     2    2
     2     7     1    1
     3     1     2    1
     4     1     4    2
     5     9     8    1
     6     2     8   am
     7    10     8    1
     8     5     4    1
     9     4     6    1
