@<TRIPOS>MOLECULE
GS-656-0.out
 18 18 0 0 0
SMALL
MULLIKEN_CHARGES
****
Gaussian 16 # wB97XD def2tzvp, opt=(calcfc, maxcycles=70, maxstep=10), freq=norama
@<TRIPOS>ATOM
      1 C           0.6633    0.0775   -0.1063 C.2     1  UNL1       -0.2802
      2 C          -0.5519    0.9153    0.0882 C.2     1  UNL1        0.3367
      3 O          -0.4650    2.1130    0.2813 O.2     1  UNL1       -0.4091
      4 C           1.8561    0.5895    0.1567 C.2     1  UNL1       -0.0472
      5 BR          3.4557   -0.3600   -0.0687 Br      1  UNL1       -0.0313
      6 H           1.9935    1.5971    0.5233 H       1  UNL1        0.1904
      7 H           0.5599   -0.9347   -0.4707 H       1  UNL1        0.1757
      8 C          -1.8841    0.2472    0.0245 C.ar    1  UNL1        0.1236
      9 C          -3.0091    1.0375   -0.2102 C.ar    1  UNL1       -0.2033
     10 C          -4.2675    0.4665   -0.2604 C.ar    1  UNL1       -0.1213
     11 C          -4.4176   -0.9003   -0.0598 C.ar    1  UNL1       -0.1277
     12 C          -3.3061   -1.6922    0.1863 C.ar    1  UNL1       -0.1426
     13 C          -2.0422   -1.1235    0.2201 C.ar    1  UNL1       -0.2203
     14 H          -2.8807    2.1016   -0.3582 H       1  UNL1        0.1501
     15 H          -5.1343    1.0848   -0.4548 H       1  UNL1        0.1500
     16 H          -5.4029   -1.3474   -0.0948 H       1  UNL1        0.1522
     17 H          -3.4215   -2.7554    0.3515 H       1  UNL1        0.1506
     18 H          -1.1886   -1.7557    0.4244 H       1  UNL1        0.1537
@<TRIPOS>BOND
     1     7     1    1
     2    15    10    1
     3    14     9    1
     4    10     9   ar
     5    10    11   ar
     6     9     8   ar
     7     1     2    1
     8     1     4    2
     9    16    11    1
    10     5     4    1
    11    11    12   ar
    12     8     2    1
    13     8    13   ar
    14     2     3    2
    15     4     6    1
    16    12    13   ar
    17    12    17    1
    18    13    18    1
