@<TRIPOS>MOLECULE
GS-694-0.out
 19 18 0 0 0
SMALL
MULLIKEN_CHARGES
****
Gaussian 16 # wB97XD def2tzvp, opt=(calcfc, maxcycles=70, maxstep=10), freq=norama
@<TRIPOS>ATOM
      1 C           0.2279   -0.1411   -0.4021 C.2     1  UNL1       -0.3741
      2 C           1.6065    0.4416   -0.3393 C.2     1  UNL1        0.3541
      3 O           1.8168    1.6114   -0.6499 O.2     1  UNL1       -0.5044
      4 C          -0.8346    0.4532    0.1211 C.2     1  UNL1        0.1069
      5 BR         -2.5338   -0.3920   -0.1159 Br      1  UNL1       -0.0958
      6 C          -0.8992    1.7137    0.9106 C.3     1  UNL1       -0.3495
      7 H           0.0972    2.1283    1.0451 H       1  UNL1        0.1470
      8 H          -1.5187    2.4507    0.3964 H       1  UNL1        0.1508
      9 H          -1.3516    1.5251    1.8854 H       1  UNL1        0.1489
     10 H           0.1186   -1.0816   -0.9262 H       1  UNL1        0.2040
     11 N           2.5919   -0.4048    0.0225 N.am    1  UNL1       -0.0991
     12 C           3.9738    0.0274   -0.0301 C.3     1  UNL1       -0.2834
     13 C           2.3746   -1.7428    0.5369 C.3     1  UNL1       -0.3022
     14 H           4.0518    0.9245   -0.6362 H       1  UNL1        0.1473
     15 H           4.3534    0.2392    0.9729 H       1  UNL1        0.1442
     16 H           4.5812   -0.7647   -0.4709 H       1  UNL1        0.1426
     17 H           2.6650   -2.4973   -0.1983 H       1  UNL1        0.1500
     18 H           2.9810   -1.8825    1.4335 H       1  UNL1        0.1462
     19 H           1.3345   -1.8920    0.8117 H       1  UNL1        0.1665
@<TRIPOS>BOND
     1    10     1    1
     2     3     2    2
     3    14    12    1
     4    16    12    1
     5     1     2    1
     6     1     4    2
     7     2    11   am
     8    17    13    1
     9     5     4    1
    10    12    11    1
    11    12    15    1
    12    11    13    1
    13     4     6    1
    14     8     6    1
    15    13    19    1
    16    13    18    1
    17     6     7    1
    18     6     9    1
