@<TRIPOS>MOLECULE
GS-614-0.out
 26 26 0 0 0
SMALL
MULLIKEN_CHARGES
****
Gaussian 16 # wB97XD def2tzvp, opt=(calcfc, maxcycles=70, maxstep=10), freq=norama
@<TRIPOS>ATOM
      1 C           0.0098   -1.6359   -0.1317 C.2     1  UNL1       -0.2197
      2 C          -1.4744   -1.6381   -0.3426 C.2     1  UNL1        0.2770
      3 O          -1.8942   -2.1895   -1.3576 O.2     1  UNL1       -0.4893
      4 C           0.7756   -0.5526   -0.1134 C.2     1  UNL1       -0.0317
      5 BR          2.6674   -0.7915    0.0204 Br      1  UNL1       -0.0813
      6 C           0.3159    0.8475   -0.1956 C.ar    1  UNL1        0.2289
      7 C           0.7521    1.8032    0.7207 C.ar    1  UNL1       -0.2224
      8 C           0.2544    3.0940    0.6748 C.ar    1  UNL1       -0.1359
      9 C          -0.6750    3.4500   -0.2934 C.ar    1  UNL1       -0.1345
     10 C          -1.1002    2.5093   -1.2191 C.ar    1  UNL1       -0.1416
     11 C          -0.6062    1.2149   -1.1737 C.ar    1  UNL1       -0.2139
     12 H           1.4733    1.5304    1.4806 H       1  UNL1        0.1549
     13 H           0.5920    3.8244    1.3986 H       1  UNL1        0.1479
     14 H          -1.0611    4.4605   -0.3294 H       1  UNL1        0.1494
     15 H          -1.8147    2.7827   -1.9847 H       1  UNL1        0.1486
     16 H          -0.9330    0.4870   -1.9051 H       1  UNL1        0.1588
     17 H           0.4539   -2.6230   -0.1256 H       1  UNL1        0.1767
     18 N          -2.2748   -1.0653    0.5735 N.am    1  UNL1       -0.0938
     19 C          -3.6977   -0.9567    0.3186 C.3     1  UNL1       -0.2754
     20 C          -1.8287   -0.4753    1.8195 C.3     1  UNL1       -0.3160
     21 H          -3.9220   -1.3559   -0.6649 H       1  UNL1        0.1509
     22 H          -4.2603   -1.5114    1.0723 H       1  UNL1        0.1462
     23 H          -3.9969    0.0931    0.3632 H       1  UNL1        0.1388
     24 H          -0.8146   -0.7830    2.0539 H       1  UNL1        0.1664
     25 H          -1.8669    0.6158    1.7663 H       1  UNL1        0.1562
     26 H          -2.4865   -0.8086    2.6235 H       1  UNL1        0.1548
@<TRIPOS>BOND
     1    15    10    1
     2    16    11    1
     3     3     2    2
     4    10    11   ar
     5    10     9   ar
     6    11     6   ar
     7    21    19    1
     8     2     1    1
     9     2    18   am
    10    14     9    1
    11     9     8   ar
    12     6     4    1
    13     6     7   ar
    14     1    17    1
    15     1     4    2
    16     4     5    1
    17    19    23    1
    18    19    18    1
    19    19    22    1
    20    18    20    1
    21     8     7   ar
    22     8    13    1
    23     7    12    1
    24    25    20    1
    25    20    24    1
    26    20    26    1
