@<TRIPOS>MOLECULE
GS-615-0.out
 30 31 0 0 0
SMALL
MULLIKEN_CHARGES
****
Gaussian 16 # wB97XD def2tzvp, opt=(calcfc, maxcycles=70, maxstep=10), freq=norama
@<TRIPOS>ATOM
      1 C          -1.0872   -1.6930   -0.0136 C.2     1  UNL1       -0.2525
      2 C           0.3949   -1.7880    0.1641 C.2     1  UNL1        0.3803
      3 O           0.8604   -2.6688    0.8670 O.2     1  UNL1       -0.4644
      4 C          -1.7990   -0.5712    0.0016 C.2     1  UNL1        0.0589
      5 BR         -3.6906   -0.6987   -0.2086 Br      1  UNL1       -0.0632
      6 C          -1.2859    0.8010    0.1987 C.ar    1  UNL1        0.0767
      7 C          -1.4652    1.7787   -0.7776 C.ar    1  UNL1       -0.1897
      8 C          -0.9143    3.0385   -0.6082 C.ar    1  UNL1       -0.1340
      9 C          -0.1956    3.3368    0.5411 C.ar    1  UNL1       -0.1343
     10 C          -0.0299    2.3717    1.5238 C.ar    1  UNL1       -0.1307
     11 C          -0.5724    1.1082    1.3552 C.ar    1  UNL1       -0.1876
     12 H          -2.0241    1.5472   -1.6757 H       1  UNL1        0.1571
     13 H          -1.0461    3.7886   -1.3769 H       1  UNL1        0.1497
     14 H           0.2325    4.3222    0.6716 H       1  UNL1        0.1510
     15 H           0.5241    2.6014    2.4246 H       1  UNL1        0.1498
     16 H          -0.4395    0.3520    2.1185 H       1  UNL1        0.1614
     17 H          -1.5785   -2.6545   -0.0829 H       1  UNL1        0.1778
     18 N           1.1312   -0.8719   -0.5141 N.am    1  UNL1       -0.2444
     19 C           2.4995   -0.5778   -0.3777 C.ar    1  UNL1        0.3206
     20 C           2.9124    0.7008   -0.7511 C.ar    1  UNL1       -0.3050
     21 C           4.2453    1.0582   -0.6565 C.ar    1  UNL1       -0.1063
     22 C           5.1820    0.1487   -0.1836 C.ar    1  UNL1       -0.1822
     23 C           4.7680   -1.1213    0.1866 C.ar    1  UNL1       -0.0931
     24 C           3.4350   -1.4961    0.0905 C.ar    1  UNL1       -0.3173
     25 H           0.6059   -0.1938   -1.0417 H       1  UNL1        0.2674
     26 H           2.1813    1.4174   -1.1081 H       1  UNL1        0.1627
     27 H           4.5511    2.0546   -0.9487 H       1  UNL1        0.1456
     28 H           6.2244    0.4287   -0.1060 H       1  UNL1        0.1440
     29 H           5.4901   -1.8402    0.5528 H       1  UNL1        0.1456
     30 H           3.1210   -2.4871    0.3760 H       1  UNL1        0.1561
@<TRIPOS>BOND
     1    12     7    1
     2    13     8    1
     3    26    20    1
     4    25    18    1
     5    27    21    1
     6     7     8   ar
     7     7     6   ar
     8    20    21   ar
     9    20    19   ar
    10    21    22   ar
    11     8     9   ar
    12    18    19    1
    13    18     2   am
    14    19    24   ar
    15     5     4    1
    16    22    28    1
    17    22    23   ar
    18    17     1    1
    19     1     4    2
    20     1     2    1
    21     4     6    1
    22    24    23   ar
    23    24    30    1
    24     2     3    2
    25    23    29    1
    26     6    11   ar
    27     9    14    1
    28     9    10   ar
    29    11    10   ar
    30    11    16    1
    31    10    15    1
