@<TRIPOS>MOLECULE
GS-607-0.out
 40 42 0 0 0
SMALL
MULLIKEN_CHARGES
****
Gaussian 16 # wb97xd def2tzvp opt=(calcfc, maxcycles=100, maxstep=10) freq=noraman
@<TRIPOS>ATOM
      1 C          -0.9924   -0.3323    0.1476 C.2     1  UNL1        0.0769
      2 C           0.2802   -1.0881    0.4618 C.2     1  UNL1        0.2688
      3 O           0.3535   -1.7900    1.4532 O.2     1  UNL1       -0.4435
      4 C          -0.9612    0.9955    0.0329 C.2     1  UNL1       -0.0091
      5 BR         -2.5448    1.9652   -0.4040 Br      1  UNL1       -0.0529
      6 C           0.2362    1.8424    0.2310 C.ar    1  UNL1        0.0599
      7 C           0.7030    2.6743   -0.7847 C.ar    1  UNL1       -0.2060
      8 C           1.8642    3.4070   -0.6063 C.ar    1  UNL1       -0.1490
      9 C           2.5619    3.3291    0.5917 C.ar    1  UNL1       -0.1144
     10 C           2.0917    2.5171    1.6125 C.ar    1  UNL1       -0.1572
     11 C           0.9329    1.7773    1.4352 C.ar    1  UNL1       -0.1837
     12 H           0.1626    2.7357   -1.7212 H       1  UNL1        0.1564
     13 H           2.2269    4.0395   -1.4062 H       1  UNL1        0.1480
     14 H           3.4686    3.9040    0.7293 H       1  UNL1        0.1499
     15 H           2.6261    2.4586    2.5519 H       1  UNL1        0.1483
     16 H           0.5660    1.1431    2.2322 H       1  UNL1        0.1613
     17 C          -2.2020   -1.1862    0.0567 C.ar    1  UNL1        0.1696
     18 C          -2.3282   -2.0952   -0.9897 C.ar    1  UNL1       -0.2002
     19 C          -3.4435   -2.9148   -1.0733 C.ar    1  UNL1       -0.1641
     20 C          -4.4340   -2.8423   -0.1043 C.ar    1  UNL1       -0.1234
     21 C          -4.3052   -1.9479    0.9491 C.ar    1  UNL1       -0.1387
     22 C          -3.1942   -1.1232    1.0300 C.ar    1  UNL1       -0.2545
     23 H          -1.5536   -2.1566   -1.7449 H       1  UNL1        0.1491
     24 H          -3.5373   -3.6123   -1.8958 H       1  UNL1        0.1456
     25 H          -5.3032   -3.4845   -0.1677 H       1  UNL1        0.1479
     26 H          -5.0715   -1.8925    1.7118 H       1  UNL1        0.1457
     27 H          -3.0922   -0.4262    1.8523 H       1  UNL1        0.1578
     28 N           1.2664   -0.9290   -0.4545 N.am    1  UNL1       -0.2350
     29 C           2.6148   -1.3202   -0.3591 C.ar    1  UNL1        0.3068
     30 C           3.5344   -0.6255   -1.1436 C.ar    1  UNL1       -0.3024
     31 C           4.8758   -0.9610   -1.1060 C.ar    1  UNL1       -0.0998
     32 C           5.3174   -1.9890   -0.2838 C.ar    1  UNL1       -0.1783
     33 C           4.3999   -2.6786    0.4931 C.ar    1  UNL1       -0.1038
     34 C           3.0501   -2.3569    0.4611 C.ar    1  UNL1       -0.3002
     35 H           1.0582   -0.2930   -1.2070 H       1  UNL1        0.2741
     36 H           3.1947    0.1847   -1.7785 H       1  UNL1        0.1542
     37 H           5.5789   -0.4118   -1.7190 H       1  UNL1        0.1468
     38 H           6.3672   -2.2497   -0.2514 H       1  UNL1        0.1447
     39 H           4.7320   -3.4852    1.1345 H       1  UNL1        0.1457
     40 H           2.3416   -2.9001    1.0653 H       1  UNL1        0.1586
@<TRIPOS>BOND
     1    24    19    1
     2    36    30    1
     3    23    18    1
     4    12     7    1
     5    37    31    1
     6    13     8    1
     7    35    28    1
     8    30    31   ar
     9    30    29   ar
    10    31    32   ar
    11    19    18   ar
    12    19    20   ar
    13    18    17   ar
    14     7     8   ar
    15     7     6   ar
    16     8     9   ar
    17    28    29    1
    18    28     2   am
    19     5     4    1
    20    29    34   ar
    21    32    38    1
    22    32    33   ar
    23    25    20    1
    24    20    21   ar
    25     4     1    2
    26     4     6    1
    27    17     1    1
    28    17    22   ar
    29     1     2    1
    30     6    11   ar
    31    34    33   ar
    32    34    40    1
    33     2     3    2
    34    33    39    1
    35     9    14    1
    36     9    10   ar
    37    21    22   ar
    38    21    26    1
    39    22    27    1
    40    11    10   ar
    41    11    16    1
    42    10    15    1
