@<TRIPOS>MOLECULE
GS-66-1.out
 21 21 0 0 0
SMALL
MULLIKEN_CHARGES
****
Gaussian 16 # wB97XD def2tzvp, opt=(maxcycles=70, maxstep=1), freq=noraman, scrf=(
@<TRIPOS>ATOM
      1 C           1.1000    0.4356    0.0914 C.2     1  UNL1       -0.0507
      2 C           2.3717    1.2398    0.1567 C.2     1  UNL1        0.2892
      3 O           2.3122    2.4155    0.4437 O.2     1  UNL1       -0.3929
      4 C          -0.0744    1.0648    0.1715 C.2     1  UNL1       -0.1442
      5 C          -1.4551    0.5822    0.1165 C.ar    1  UNL1        0.2263
      6 C          -1.8789   -0.6337    0.6561 C.ar    1  UNL1       -0.2353
      7 C          -3.2109   -1.0073    0.5820 C.ar    1  UNL1       -0.1374
      8 C          -4.1381   -0.1818   -0.0380 C.ar    1  UNL1       -0.1320
      9 C          -3.7318    1.0361   -0.5654 C.ar    1  UNL1       -0.1470
     10 C          -2.4054    1.4205   -0.4738 C.ar    1  UNL1       -0.2244
     11 H          -1.1739   -1.2803    1.1578 H       1  UNL1        0.1637
     12 H          -3.5263   -1.9483    1.0143 H       1  UNL1        0.1479
     13 H          -5.1765   -0.4813   -0.0991 H       1  UNL1        0.1498
     14 H          -4.4509    1.6919   -1.0389 H       1  UNL1        0.1479
     15 H          -2.0939    2.3791   -0.8710 H       1  UNL1        0.1475
     16 H           0.0308    2.1429    0.2557 H       1  UNL1        0.1720
     17 BR          1.2660   -1.4349   -0.1909 Br      1  UNL1       -0.0656
     18 C           3.6835    0.5749   -0.1396 C.3     1  UNL1       -0.3784
     19 H           3.8854   -0.2070    0.5946 H       1  UNL1        0.1611
     20 H           3.6608    0.0946   -1.1190 H       1  UNL1        0.1596
     21 H           4.4726    1.3213   -0.1074 H       1  UNL1        0.1429
@<TRIPOS>BOND
     1    20    18    1
     2    14     9    1
     3    15    10    1
     4     9    10   ar
     5     9     8   ar
     6    10     5   ar
     7    17     1    1
     8    18    21    1
     9    18     2    1
    10    18    19    1
    11    13     8    1
    12     8     7   ar
    13     1     2    1
    14     1     4    2
    15     5     4    1
    16     5     6   ar
    17     2     3    2
    18     4    16    1
    19     7     6   ar
    20     7    12    1
    21     6    11    1
