@<TRIPOS>MOLECULE
GS-651-0.out
 10 9 0 0 0
SMALL
MULLIKEN_CHARGES
****
Gaussian 16 # wB97XD def2tzvp, opt=(calcfc, maxcycles=70, maxstep=10), freq=norama
@<TRIPOS>ATOM
      1 C          -0.8534   -0.4186   -0.0000 C.2     1  UNL1       -0.2400
      2 C          -2.2592    0.0834   -0.0000 C.2     1  UNL1        0.3480
      3 O          -2.5364    1.2747   -0.0000 O.2     1  UNL1       -0.4803
      4 C           0.1452    0.4466    0.0000 C.2     1  UNL1       -0.0794
      5 BR          1.9511   -0.0640    0.0000 Br      1  UNL1       -0.0417
      6 H          -0.0101    1.5162    0.0000 H       1  UNL1        0.1902
      7 H          -0.6780   -1.4871   -0.0000 H       1  UNL1        0.1727
      8 N          -3.1964   -0.8822   -0.0000 N.am    1  UNL1       -0.4451
      9 H          -4.1678   -0.6232    0.0000 H       1  UNL1        0.2823
     10 H          -2.9608   -1.8579    0.0000 H       1  UNL1        0.2932
@<TRIPOS>BOND
     1     7     1    1
     2     1     2    1
     3     1     4    2
     4     2     3    2
     5     2     8   am
     6     5     4    1
     7     8     9    1
     8     8    10    1
     9     4     6    1
