@<TRIPOS>MOLECULE
GS-617-0.out
 21 21 0 0 0
SMALL
MULLIKEN_CHARGES
****
Gaussian 16 # wB97XD def2tzvp, opt=(calcfc, maxcycles=70, maxstep=10), freq=norama
@<TRIPOS>ATOM
      1 C           1.3603    1.0570   -0.0807 C.2     1  UNL1       -0.0553
      2 C           0.7557    2.3885   -0.3139 C.2     1  UNL1        0.1528
      3 O           1.3925    3.4170   -0.3286 O.2     1  UNL1       -0.3785
      4 C           0.5361    0.0020   -0.0123 C.2     1  UNL1        0.0261
      5 BR          1.2763   -1.7458    0.1384 Br      1  UNL1       -0.0479
      6 C          -0.9414    0.0217   -0.0049 C.ar    1  UNL1        0.1925
      7 C          -1.6680   -0.5965   -1.0212 C.ar    1  UNL1       -0.2007
      8 C          -3.0514   -0.5613   -1.0075 C.ar    1  UNL1       -0.1399
      9 C          -3.7239    0.0755    0.0279 C.ar    1  UNL1       -0.1396
     10 C          -3.0070    0.6795    1.0488 C.ar    1  UNL1       -0.1090
     11 C          -1.6204    0.6532    1.0343 C.ar    1  UNL1       -0.2646
     12 H          -1.1460   -1.0968   -1.8273 H       1  UNL1        0.1573
     13 H          -3.6075   -1.0326   -1.8075 H       1  UNL1        0.1497
     14 H          -4.8060    0.0969    0.0385 H       1  UNL1        0.1512
     15 H          -3.5250    1.1721    1.8614 H       1  UNL1        0.1508
     16 H          -1.0587    1.1189    1.8342 H       1  UNL1        0.1648
     17 C           2.8527    0.9828    0.0115 C.3     1  UNL1       -0.3850
     18 H           3.2698    0.4511   -0.8459 H       1  UNL1        0.1495
     19 H           3.2700    1.9870    0.0311 H       1  UNL1        0.1440
     20 H           3.1638    0.4519    0.9117 H       1  UNL1        0.1474
     21 H          -0.3281    2.4037   -0.5032 H       1  UNL1        0.1344
@<TRIPOS>BOND
     1    12     7    1
     2    13     8    1
     3     7     8   ar
     4     7     6   ar
     5     8     9   ar
     6    18    17    1
     7    21     2    1
     8     3     2    2
     9     2     1    1
    10     1     4    2
    11     1    17    1
    12     4     6    1
    13     4     5    1
    14     6    11   ar
    15    17    19    1
    16    17    20    1
    17     9    14    1
    18     9    10   ar
    19    11    10   ar
    20    11    16    1
    21    10    15    1
