@<TRIPOS>MOLECULE
GS-631-1.out
 30 31 0 0 0
SMALL
MULLIKEN_CHARGES
****
Gaussian 16 # wB97XD def2tzvp, opt=(calcfc, maxcycles=70, maxstep=1), freq=noraman
@<TRIPOS>ATOM
      1 C          -1.0607   -0.8305    0.0941 C.2     1  UNL1       -0.0525
      2 C           0.3628   -1.2642    0.3661 C.2     1  UNL1        0.3220
      3 O           0.6275   -1.9756    1.3136 O.2     1  UNL1       -0.4321
      4 C          -1.4207    0.4514    0.0468 C.2     1  UNL1       -0.0166
      5 BR         -3.2102    0.9773   -0.2738 Br      1  UNL1       -0.0249
      6 C          -0.4695    1.5666    0.2629 C.ar    1  UNL1        0.1117
      7 C          -0.2541    2.5171   -0.7327 C.ar    1  UNL1       -0.1987
      8 C           0.6856    3.5166   -0.5456 C.ar    1  UNL1       -0.1451
      9 C           1.4066    3.5841    0.6390 C.ar    1  UNL1       -0.1182
     10 C           1.1826    2.6500    1.6389 C.ar    1  UNL1       -0.1491
     11 C           0.2468    1.6443    1.4542 C.ar    1  UNL1       -0.1833
     12 H          -0.8127    2.4644   -1.6589 H       1  UNL1        0.1587
     13 H           0.8571    4.2438   -1.3285 H       1  UNL1        0.1497
     14 H           2.1403    4.3667    0.7826 H       1  UNL1        0.1511
     15 H           1.7360    2.7023    2.5674 H       1  UNL1        0.1503
     16 H           0.0719    0.9144    2.2344 H       1  UNL1        0.1625
     17 BR         -2.2518   -2.2764   -0.0728 Br      1  UNL1       -0.0146
     18 N           1.2544   -0.7913   -0.5353 N.am    1  UNL1       -0.2459
     19 C           2.6602   -0.7992   -0.4310 C.ar    1  UNL1        0.3147
     20 C           3.3513    0.2391   -1.0512 C.ar    1  UNL1       -0.2953
     21 C           4.7331    0.2836   -0.9959 C.ar    1  UNL1       -0.1041
     22 C           5.4377   -0.7017   -0.3176 C.ar    1  UNL1       -0.1754
     23 C           4.7453   -1.7339    0.2964 C.ar    1  UNL1       -0.0949
     24 C           3.3601   -1.7950    0.2420 C.ar    1  UNL1       -0.3068
     25 H           0.8799   -0.1833   -1.2457 H       1  UNL1        0.2780
     26 H           2.8018    1.0166   -1.5692 H       1  UNL1        0.1619
     27 H           5.2595    1.0960   -1.4800 H       1  UNL1        0.1473
     28 H           6.5182   -0.6650   -0.2704 H       1  UNL1        0.1455
     29 H           5.2857   -2.5104    0.8228 H       1  UNL1        0.1471
     30 H           2.8277   -2.6039    0.7165 H       1  UNL1        0.1571
@<TRIPOS>BOND
     1    12     7    1
     2    26    20    1
     3    27    21    1
     4    13     8    1
     5    25    18    1
     6    20    21   ar
     7    20    19   ar
     8    21    22   ar
     9     7     8   ar
    10     7     6   ar
    11     8     9   ar
    12    18    19    1
    13    18     2   am
    14    19    24   ar
    15    22    28    1
    16    22    23   ar
    17     5     4    1
    18    17     1    1
    19     4     1    2
    20     4     6    1
    21     1     2    1
    22    24    23   ar
    23    24    30    1
    24     6    11   ar
    25    23    29    1
    26     2     3    2
    27     9    14    1
    28     9    10   ar
    29    11    10   ar
    30    11    16    1
    31    10    15    1
