@<TRIPOS>MOLECULE
GS-665-0.out
 8 7 0 0 0
SMALL
MULLIKEN_CHARGES
****
Gaussian 16 # wB97XD def2tzvp, opt=(calcfc, maxcycles=70, maxstep=10), freq=norama
@<TRIPOS>ATOM
      1 C           0.7650    0.5488    0.0000 C.2     1  UNL1       -0.0505
      2 C           1.9369    1.4705   -0.0000 C.2     1  UNL1        0.1488
      3 O           1.8346    2.6689   -0.0000 O.2     1  UNL1       -0.3429
      4 C          -0.4684    1.0421    0.0000 C.2     1  UNL1       -0.0817
      5 BR         -2.0457    0.0621   -0.0000 Br      1  UNL1        0.0169
      6 H          -0.6069    2.1148    0.0000 H       1  UNL1        0.2043
      7 BR          1.1774   -1.2851   -0.0000 Br      1  UNL1       -0.0240
      8 H           2.9199    0.9716   -0.0000 H       1  UNL1        0.1291
@<TRIPOS>BOND
     1     8     2    1
     2     2     3    2
     3     2     1    1
     4     5     4    1
     5     7     1    1
     6     1     4    2
     7     4     6    1
