@<TRIPOS>MOLECULE
GS-714-0.out
 14 13 0 0 0
SMALL
MULLIKEN_CHARGES
****
Gaussian 16 # wB97XD def2tzvp, opt=(calcfc, maxcycles=70, maxstep=10), freq=norama
@<TRIPOS>ATOM
      1 C          -0.7505   -0.0969   -0.0743 C.2     1  UNL1       -0.0444
      2 C          -2.1539    0.4487   -0.0796 C.2     1  UNL1        0.2843
      3 O          -2.3955    1.5121   -0.6016 O.2     1  UNL1       -0.3767
      4 C           0.3360    0.6730    0.0358 C.2     1  UNL1        0.0422
      5 BR          2.0620   -0.1075    0.0361 Br      1  UNL1       -0.0427
      6 C           0.3688    2.1576    0.1862 C.3     1  UNL1       -0.3421
      7 H          -0.6197    2.5610    0.3800 H       1  UNL1        0.1517
      8 H           1.0426    2.4278    0.9991 H       1  UNL1        0.1511
      9 H           0.7529    2.6121   -0.7292 H       1  UNL1        0.1576
     10 CL         -0.6557   -1.8259   -0.1857 Cl      1  UNL1       -0.0717
     11 C          -3.2261   -0.3735    0.5773 C.3     1  UNL1       -0.3777
     12 H          -2.8779   -0.8047    1.5158 H       1  UNL1        0.1592
     13 H          -4.0963    0.2564    0.7447 H       1  UNL1        0.1454
     14 H          -3.5060   -1.2005   -0.0783 H       1  UNL1        0.1638
@<TRIPOS>BOND
     1     9     6    1
     2     3     2    2
     3    10     1    1
     4     2     1    1
     5     2    11    1
     6    14    11    1
     7     1     4    2
     8     4     5    1
     9     4     6    1
    10     6     7    1
    11     6     8    1
    12    11    13    1
    13    11    12    1
