@<TRIPOS>MOLECULE
GS-785-0.out
 8 7 0 0 0
SMALL
MULLIKEN_CHARGES
****
Gaussian 16 # wB97XD def2tzvp, opt=(calcfc, maxcycles=70, maxstep=10), freq=norama
@<TRIPOS>ATOM
      1 C          -0.6624    0.5599   -0.0000 C.2     1  UNL1       -0.0674
      2 C          -1.4864    1.7939   -0.0000 C.2     1  UNL1        0.1377
      3 O          -2.6890    1.7901    0.0000 O.2     1  UNL1       -0.3378
      4 C           0.6780    0.5871    0.0000 C.2     1  UNL1        0.0759
      5 BR          1.7565   -0.9390    0.0000 Br      1  UNL1        0.0550
      6 CL          1.5683    2.0553   -0.0000 Cl      1  UNL1        0.0028
      7 BR         -1.6254   -1.0507   -0.0000 Br      1  UNL1       -0.0015
      8 H          -0.9155    2.7322   -0.0000 H       1  UNL1        0.1354
@<TRIPOS>BOND
     1     8     2    1
     2     1     2    1
     3     1     4    2
     4     1     7    1
     5     2     3    2
     6     4     5    1
     7     4     6    1
