@<TRIPOS>MOLECULE
GS-759-1.out
 20 20 0 0 0
SMALL
MULLIKEN_CHARGES
****
Gaussian 16 # wB97XD def2tzvp, opt=(calcfc, maxcycles=70, maxstep=1), freq=noraman
@<TRIPOS>ATOM
      1 C           0.8368    0.9282   -0.1529 C.2     1  UNL1       -0.0119
      2 C          -0.6013    0.8093   -0.6180 C.2     1  UNL1        0.4196
      3 O          -0.8916    1.0831   -1.7637 O.2     1  UNL1       -0.4270
      4 C           1.6682   -0.1018   -0.0475 C.2     1  UNL1       -0.1071
      5 BR          3.4686    0.0604    0.4404 Br      1  UNL1        0.0186
      6 BR          1.0851   -1.8525   -0.4182 Br      1  UNL1        0.0178
      7 CL          1.3203    2.5538    0.1366 Cl      1  UNL1       -0.0311
      8 N          -1.4485    0.4216    0.3577 N.am    1  UNL1       -0.2646
      9 C          -2.8380    0.1981    0.2851 C.ar    1  UNL1        0.3117
     10 C          -3.4565   -0.2947    1.4334 C.ar    1  UNL1       -0.2930
     11 C          -4.8179   -0.5370    1.4409 C.ar    1  UNL1       -0.0980
     12 C          -5.5792   -0.2926    0.3058 C.ar    1  UNL1       -0.1793
     13 C          -4.9605    0.1977   -0.8327 C.ar    1  UNL1       -0.1090
     14 C          -3.5952    0.4473   -0.8559 C.ar    1  UNL1       -0.2896
     15 H          -1.0288    0.2347    1.2548 H       1  UNL1        0.2844
     16 H          -2.8675   -0.4893    2.3219 H       1  UNL1        0.1492
     17 H          -5.2844   -0.9198    2.3394 H       1  UNL1        0.1491
     18 H          -6.6444   -0.4830    0.3110 H       1  UNL1        0.1461
     19 H          -5.5432    0.3934   -1.7240 H       1  UNL1        0.1474
     20 H          -3.1235    0.8297   -1.7461 H       1  UNL1        0.1666
@<TRIPOS>BOND
     1     3     2    2
     2    20    14    1
     3    19    13    1
     4    14    13   ar
     5    14     9   ar
     6    13    12   ar
     7     2     1    1
     8     2     8   am
     9     6     4    1
    10     1     4    2
    11     1     7    1
    12     4     5    1
    13     9     8    1
    14     9    10   ar
    15    12    18    1
    16    12    11   ar
    17     8    15    1
    18    10    11   ar
    19    10    16    1
    20    11    17    1
