@<TRIPOS>MOLECULE
GS-723-0.out
 20 20 0 0 0
SMALL
MULLIKEN_CHARGES
****
Gaussian 16 # wB97XD def2tzvp, opt=(calcfc, maxcycles=70, maxstep=10), freq=norama
@<TRIPOS>ATOM
      1 C          -0.1245    0.6702    0.0156 C.2     1  UNL1       -0.0603
      2 C           0.1849    2.1531   -0.0041 C.2     1  UNL1        0.2749
      3 O           0.1965    2.7690   -1.0550 O.2     1  UNL1       -0.4349
      4 C           0.8473   -0.2304   -0.0171 C.2     1  UNL1       -0.0661
      5 BR          0.5322   -2.0868   -0.1267 Br      1  UNL1       -0.0081
      6 BR          2.6759    0.2399   -0.0027 Br      1  UNL1       -0.0085
      7 C          -1.5735    0.3411    0.0195 C.ar    1  UNL1        0.2432
      8 C          -2.1625   -0.2278    1.1449 C.ar    1  UNL1       -0.2335
      9 C          -3.5199   -0.5075    1.1533 C.ar    1  UNL1       -0.1298
     10 C          -4.2970   -0.2193    0.0403 C.ar    1  UNL1       -0.1363
     11 C          -3.7139    0.3546   -1.0804 C.ar    1  UNL1       -0.1409
     12 C          -2.3572    0.6400   -1.0913 C.ar    1  UNL1       -0.2198
     13 H          -1.5549   -0.4512    2.0130 H       1  UNL1        0.1615
     14 H          -3.9707   -0.9507    2.0318 H       1  UNL1        0.1479
     15 H          -5.3568   -0.4399    0.0472 H       1  UNL1        0.1491
     16 H          -4.3163    0.5818   -1.9505 H       1  UNL1        0.1476
     17 H          -1.9003    1.0921   -1.9621 H       1  UNL1        0.1500
     18 N           0.3726    2.7086    1.1996 N.am    1  UNL1       -0.4230
     19 H           0.5581    3.6953    1.2676 H       1  UNL1        0.2861
     20 H           0.3746    2.1572    2.0390 H       1  UNL1        0.3010
@<TRIPOS>BOND
     1    17    12    1
     2    16    11    1
     3    12    11   ar
     4    12     7   ar
     5    11    10   ar
     6     3     2    2
     7     5     4    1
     8     4     6    1
     9     4     1    2
    10     2     1    1
    11     2    18   am
    12     1     7    1
    13     7     8   ar
    14    10    15    1
    15    10     9   ar
    16     8     9   ar
    17     8    13    1
    18     9    14    1
    19    18    19    1
    20    18    20    1
