@<TRIPOS>MOLECULE
GS-789-0.out
 13 12 0 0 0
SMALL
MULLIKEN_CHARGES
****
Gaussian 16 # wB97XD def2tzvp, opt=(calcfc, maxcycles=70, maxstep=10), freq=norama
@<TRIPOS>ATOM
      1 C           0.3914   -0.1831    0.1104 C.2     1  UNL1       -0.0900
      2 C           1.8482    0.1516    0.3444 C.2     1  UNL1        0.3733
      3 O           2.3345    0.0520    1.4578 O.2     1  UNL1       -0.4528
      4 C          -0.5644    0.7366    0.0660 C.2     1  UNL1       -0.0193
      5 BR         -2.3918    0.3717   -0.1379 Br      1  UNL1        0.0191
      6 CL         -0.1795    2.4098    0.2183 Cl      1  UNL1       -0.0207
      7 BR          0.0557   -2.0260   -0.0150 Br      1  UNL1        0.0111
      8 N           2.5208    0.5190   -0.7482 N.am    1  UNL1       -0.2985
      9 C           3.9259    0.8670   -0.7006 C.3     1  UNL1       -0.2533
     10 H           2.0278    0.5852   -1.6217 H       1  UNL1        0.2897
     11 H           4.2676    1.0629   -1.7131 H       1  UNL1        0.1535
     12 H           4.0851    1.7572   -0.0906 H       1  UNL1        0.1439
     13 H           4.5072    0.0468   -0.2793 H       1  UNL1        0.1440
@<TRIPOS>BOND
     1    11     9    1
     2    10     8    1
     3     8     9    1
     4     8     2   am
     5     9    13    1
     6     9    12    1
     7     5     4    1
     8     7     1    1
     9     4     1    2
    10     4     6    1
    11     1     2    1
    12     2     3    2
