@<TRIPOS>MOLECULE
GS-781-0.out
 16 15 0 0 0
SMALL
MULLIKEN_CHARGES
****
Gaussian 16 # wB97XD def2tzvp, opt=(calcfc, maxcycles=70, maxstep=10), freq=norama
@<TRIPOS>ATOM
      1 C          -0.3849    0.7649    0.0763 C.2     1  UNL1       -0.0690
      2 C          -1.8368    0.4188    0.3143 C.2     1  UNL1        0.3635
      3 O          -2.3475    0.6090    1.4084 O.2     1  UNL1       -0.4729
      4 C           0.5289   -0.1952    0.0679 C.2     1  UNL1       -0.0245
      5 BR          2.3813    0.1122   -0.1459 Br      1  UNL1       -0.0299
      6 CL          0.1360   -1.8674    0.2825 Cl      1  UNL1       -0.0504
      7 C          -0.1219    2.2311   -0.0628 C.3     1  UNL1       -0.3190
      8 H          -0.4985    2.7498    0.8209 H       1  UNL1        0.1528
      9 H           0.9357    2.4517   -0.1776 H       1  UNL1        0.1403
     10 H          -0.6603    2.6238   -0.9282 H       1  UNL1        0.1503
     11 N          -2.5039   -0.0344   -0.7521 N.am    1  UNL1       -0.3052
     12 C          -3.9060   -0.3888   -0.6900 C.3     1  UNL1       -0.2529
     13 H          -1.9985   -0.1843   -1.6078 H       1  UNL1        0.2854
     14 H          -4.4938    0.4482   -0.3132 H       1  UNL1        0.1405
     15 H          -4.2454   -0.6386   -1.6916 H       1  UNL1        0.1509
     16 H          -4.0644   -1.2474   -0.0351 H       1  UNL1        0.1401
@<TRIPOS>BOND
     1    15    12    1
     2    13    11    1
     3    10     7    1
     4    11    12    1
     5    11     2   am
     6    12    14    1
     7    12    16    1
     8     9     7    1
     9     5     4    1
    10     7     1    1
    11     7     8    1
    12     4     1    2
    13     4     6    1
    14     1     2    1
    15     2     3    2
