@<TRIPOS>MOLECULE
GS-768-0.out
 28 29 0 0 0
SMALL
MULLIKEN_CHARGES
****
Gaussian 16 # wB97XD def2tzvp, opt=(calcfc, maxcycles=70, maxstep=10), freq=norama
@<TRIPOS>ATOM
      1 C          -0.2847   -0.1222    0.4915 C.2     1  UNL1       -0.0460
      2 C           1.0789   -0.0790    1.1544 C.2     1  UNL1        0.3135
      3 O           1.1433   -0.0714    2.3623 O.2     1  UNL1       -0.3654
      4 C          -0.8526   -1.2883    0.2199 C.2     1  UNL1       -0.0051
      5 BR         -2.5985   -1.4839   -0.4631 Br      1  UNL1        0.0015
      6 CL         -0.0382   -2.7875    0.4942 Cl      1  UNL1       -0.0383
      7 C          -0.8894    1.2092    0.2388 C.ar    1  UNL1        0.1877
      8 C          -1.0989    2.0866    1.3001 C.ar    1  UNL1       -0.2210
      9 C          -1.6387    3.3423    1.0696 C.ar    1  UNL1       -0.1485
     10 C          -1.9594    3.7372   -0.2211 C.ar    1  UNL1       -0.1272
     11 C          -1.7389    2.8716   -1.2831 C.ar    1  UNL1       -0.1421
     12 C          -1.2050    1.6136   -1.0559 C.ar    1  UNL1       -0.2467
     13 H          -0.8451    1.7809    2.3070 H       1  UNL1        0.1534
     14 H          -1.8073    4.0138    1.9015 H       1  UNL1        0.1478
     15 H          -2.3771    4.7196   -0.3999 H       1  UNL1        0.1494
     16 H          -1.9803    3.1766   -2.2931 H       1  UNL1        0.1478
     17 H          -1.0309    0.9429   -1.8876 H       1  UNL1        0.1755
     18 C           2.2749    0.0222    0.2832 C.ar    1  UNL1        0.0662
     19 C           2.1738   -0.0646   -1.1033 C.ar    1  UNL1       -0.1622
     20 C           3.3098    0.0306   -1.8903 C.ar    1  UNL1       -0.1687
     21 C           4.5492    0.2155   -1.2954 C.ar    1  UNL1       -0.1118
     22 C           4.6564    0.3032    0.0879 C.ar    1  UNL1       -0.1224
     23 C           3.5245    0.2061    0.8750 C.ar    1  UNL1       -0.2171
     24 H           1.2095   -0.2141   -1.5710 H       1  UNL1        0.1737
     25 H           3.2278   -0.0398   -2.9668 H       1  UNL1        0.1501
     26 H           5.4367    0.2912   -1.9108 H       1  UNL1        0.1540
     27 H           5.6249    0.4476    0.5485 H       1  UNL1        0.1518
     28 H           3.5925    0.2728    1.9527 H       1  UNL1        0.1502
@<TRIPOS>BOND
     1    25    20    1
     2    16    11    1
     3    26    21    1
     4    20    21   ar
     5    20    19   ar
     6    17    12    1
     7    24    19    1
     8    21    22   ar
     9    11    12   ar
    10    11    10   ar
    11    19    18   ar
    12    12     7   ar
    13     5     4    1
    14    15    10    1
    15    10     9   ar
    16    22    27    1
    17    22    23   ar
    18     4     1    2
    19     4     6    1
    20     7     1    1
    21     7     8   ar
    22    18    23   ar
    23    18     2    1
    24     1     2    1
    25    23    28    1
    26     9     8   ar
    27     9    14    1
    28     2     3    2
    29     8    13    1
