@<TRIPOS>MOLECULE
GS-776-0.out
 18 18 0 0 0
SMALL
MULLIKEN_CHARGES
****
Gaussian 16 # wB97XD def2tzvp, opt=(calcfc, maxcycles=70, maxstep=10), freq=norama
@<TRIPOS>ATOM
      1 C           0.3685   -0.0485   -0.3938 C.2     1  UNL1       -0.3188
      2 C          -0.8210    0.8441   -0.3241 C.2     1  UNL1        0.3340
      3 O          -0.7298    2.0477   -0.4451 O.2     1  UNL1       -0.3827
      4 C           1.6005    0.2629   -0.0072 C.2     1  UNL1        0.0841
      5 BR          3.0034   -0.9867   -0.1845 Br      1  UNL1        0.0015
      6 CL          2.0755    1.7426    0.7086 Cl      1  UNL1       -0.0017
      7 H           0.2145   -1.0421   -0.7916 H       1  UNL1        0.2063
      8 C          -2.1444    0.1839   -0.1307 C.ar    1  UNL1        0.1152
      9 C          -3.2982    0.9010   -0.4448 C.ar    1  UNL1       -0.1955
     10 C          -4.5450    0.3332   -0.2565 C.ar    1  UNL1       -0.1220
     11 C          -4.6513   -0.9520    0.2613 C.ar    1  UNL1       -0.1284
     12 C          -3.5086   -1.6678    0.5865 C.ar    1  UNL1       -0.1433
     13 C          -2.2579   -1.1054    0.3849 C.ar    1  UNL1       -0.2226
     14 H          -3.2027    1.9030   -0.8417 H       1  UNL1        0.1516
     15 H          -5.4368    0.8907   -0.5117 H       1  UNL1        0.1508
     16 H          -5.6275   -1.3951    0.4121 H       1  UNL1        0.1528
     17 H          -3.5901   -2.6655    0.9974 H       1  UNL1        0.1515
     18 H          -1.3748   -1.6707    0.6530 H       1  UNL1        0.1671
@<TRIPOS>BOND
     1    14     9    1
     2     7     1    1
     3    15    10    1
     4     3     2    2
     5     9    10   ar
     6     9     8   ar
     7     1     2    1
     8     1     4    2
     9     2     8    1
    10    10    11   ar
    11     5     4    1
    12     8    13   ar
    13     4     6    1
    14    11    16    1
    15    11    12   ar
    16    13    12   ar
    17    13    18    1
    18    12    17    1
