@<TRIPOS>MOLECULE
GS-738-0.out
 14 13 0 0 0
SMALL
MULLIKEN_CHARGES
****
Gaussian 16 # wB97XD def2tzvp, opt=(calcfc, maxcycles=70, maxstep=10), freq=norama
@<TRIPOS>ATOM
      1 C          -0.7153   -1.0363   -0.0559 C.2     1  UNL1        0.0108
      2 C          -2.1703   -0.6198   -0.1400 C.2     1  UNL1        0.2332
      3 O          -2.7194   -0.5875   -1.2135 O.2     1  UNL1       -0.3563
      4 C           0.2415   -0.1226   -0.0174 C.2     1  UNL1       -0.0880
      5 BR          2.0855   -0.5268    0.0530 Br      1  UNL1       -0.0319
      6 BR         -0.1294    1.7333   -0.0498 Br      1  UNL1       -0.0246
      7 C          -0.5193   -2.5210   -0.0598 C.3     1  UNL1       -0.3098
      8 H          -0.9094   -2.9341   -0.9924 H       1  UNL1        0.1562
      9 H           0.5275   -2.7956    0.0374 H       1  UNL1        0.1438
     10 H          -1.0785   -2.9767    0.7601 H       1  UNL1        0.1498
     11 C          -2.8661   -0.3547    1.1599 C.3     1  UNL1       -0.3467
     12 H          -2.3415    0.4278    1.7106 H       1  UNL1        0.1585
     13 H          -3.9006   -0.0678    0.9863 H       1  UNL1        0.1442
     14 H          -2.8289   -1.2574    1.7745 H       1  UNL1        0.1607
@<TRIPOS>BOND
     1     3     2    2
     2     8     7    1
     3     2     1    1
     4     2    11    1
     5     7     1    1
     6     7     9    1
     7     7    10    1
     8     1     4    2
     9     6     4    1
    10     4     5    1
    11    13    11    1
    12    11    12    1
    13    11    14    1
