@<TRIPOS>MOLECULE
GS-753-0.out
 8 7 0 0 0
SMALL
MULLIKEN_CHARGES
****
Gaussian 16 # wB97XD def2tzvp, opt=(calcfc, maxcycles=70, maxstep=10), freq=norama
@<TRIPOS>ATOM
      1 C           1.1937    0.1117   -0.0000 C.2     1  UNL1        0.0236
      2 C           1.9430    1.3951   -0.0000 C.2     1  UNL1        0.1338
      3 O           3.1436    1.4538   -0.0000 O.2     1  UNL1       -0.3331
      4 C          -0.1444    0.0362    0.0000 C.2     1  UNL1       -0.0060
      5 BR         -1.0729   -1.5844   -0.0000 Br      1  UNL1        0.0475
      6 BR         -1.2520    1.5535    0.0000 Br      1  UNL1        0.0354
      7 CL          2.1734   -1.3005    0.0000 Cl      1  UNL1       -0.0414
      8 H           1.3206    2.2997   -0.0000 H       1  UNL1        0.1401
@<TRIPOS>BOND
     1     1     2    1
     2     1     4    2
     3     1     7    1
     4     8     2    1
     5     2     3    2
     6     4     5    1
     7     4     6    1
