@<TRIPOS>MOLECULE
GS-734-0.out
 16 15 0 0 0
SMALL
MULLIKEN_CHARGES
****
Gaussian 16 # wB97XD def2tzvp, opt=(calcfc, maxcycles=70, maxstep=10), freq=norama
@<TRIPOS>ATOM
      1 C          -0.2903   -1.1475    0.2605 C.2     1  UNL1       -0.2207
      2 C          -1.7176   -0.8320    0.6083 C.2     1  UNL1        0.3369
      3 O          -2.0535   -0.9505    1.7812 O.2     1  UNL1       -0.4841
      4 C           0.6632   -0.2469    0.1126 C.2     1  UNL1       -0.0315
      5 BR          2.4669   -0.7340   -0.1420 Br      1  UNL1       -0.0177
      6 BR          0.3341    1.6091    0.1394 Br      1  UNL1       -0.0087
      7 H          -0.0318   -2.1996    0.2510 H       1  UNL1        0.1988
      8 N          -2.5475   -0.4686   -0.3814 N.am    1  UNL1       -0.1116
      9 C          -3.9245   -0.1275   -0.0822 C.3     1  UNL1       -0.2736
     10 C          -2.1742   -0.3750   -1.7788 C.3     1  UNL1       -0.2983
     11 H          -4.0837   -0.1720    0.9902 H       1  UNL1        0.1517
     12 H          -4.1382    0.8812   -0.4415 H       1  UNL1        0.1416
     13 H          -4.6006   -0.8259   -0.5797 H       1  UNL1        0.1458
     14 H          -1.1691   -0.7535   -1.9378 H       1  UNL1        0.1688
     15 H          -2.8675   -0.9664   -2.3795 H       1  UNL1        0.1493
     16 H          -2.2203    0.6633   -2.1146 H       1  UNL1        0.1531
@<TRIPOS>BOND
     1    15    10    1
     2    16    10    1
     3    14    10    1
     4    10     8    1
     5    13     9    1
     6    12     9    1
     7     8     9    1
     8     8     2   am
     9     5     4    1
    10     9    11    1
    11     4     6    1
    12     4     1    2
    13     7     1    1
    14     1     2    1
    15     2     3    2
