@<TRIPOS>MOLECULE
GS-704-1.out
 24 24 0 0 0
SMALL
MULLIKEN_CHARGES
****
Gaussian 16 # wB97XD def2tzvp, opt=(calcfc, maxcycles=70, maxstep=1), freq=noraman
@<TRIPOS>ATOM
      1 C          -0.5434    0.3502    0.5704 C.2     1  UNL1       -0.0305
      2 C           0.7432    1.1032    0.3522 C.2     1  UNL1        0.2777
      3 O           0.7757    2.3135    0.4154 O.2     1  UNL1       -0.3791
      4 C          -1.4984    0.4282   -0.3477 C.2     1  UNL1        0.0268
      5 BR         -3.1447   -0.5006   -0.0510 Br      1  UNL1       -0.1004
      6 C          -1.4632    1.1524   -1.6522 C.3     1  UNL1       -0.3712
      7 H          -2.2374    1.9207   -1.6863 H       1  UNL1        0.1512
      8 H          -0.4977    1.6305   -1.8081 H       1  UNL1        0.1460
      9 H          -1.6468    0.4604   -2.4756 H       1  UNL1        0.1497
     10 C          -0.6189   -0.4292    1.8552 C.3     1  UNL1       -0.3791
     11 H           0.3350   -0.4101    2.3810 H       1  UNL1        0.1521
     12 H          -1.3756   -0.0013    2.5154 H       1  UNL1        0.1603
     13 H          -0.8863   -1.4710    1.6722 H       1  UNL1        0.1524
     14 C           1.9717    0.2990    0.1009 C.ar    1  UNL1        0.0701
     15 C           3.2188    0.9146    0.1972 C.ar    1  UNL1       -0.2144
     16 C           4.3714    0.1925   -0.0525 C.ar    1  UNL1       -0.1246
     17 C           4.2865   -1.1484   -0.4087 C.ar    1  UNL1       -0.1218
     18 C           3.0487   -1.7661   -0.5117 C.ar    1  UNL1       -0.1526
     19 C           1.8934   -1.0458   -0.2530 C.ar    1  UNL1       -0.1877
     20 H           3.2698    1.9600    0.4719 H       1  UNL1        0.1482
     21 H           5.3384    0.6715    0.0290 H       1  UNL1        0.1505
     22 H           5.1893   -1.7124   -0.6065 H       1  UNL1        0.1526
     23 H           2.9829   -2.8088   -0.7934 H       1  UNL1        0.1502
     24 H           0.9281   -1.5285   -0.3391 H       1  UNL1        0.1736
@<TRIPOS>BOND
     1     9     6    1
     2     8     6    1
     3     7     6    1
     4     6     4    1
     5    23    18    1
     6    22    17    1
     7    18    17   ar
     8    18    19   ar
     9    17    16   ar
    10     4     5    1
    11     4     1    2
    12    24    19    1
    13    19    14   ar
    14    16    21    1
    15    16    15   ar
    16    14    15   ar
    17    14     2    1
    18    15    20    1
    19     2     3    2
    20     2     1    1
    21     1    10    1
    22    13    10    1
    23    10    11    1
    24    10    12    1
