@<TRIPOS>MOLECULE
GS-70-1.out
 26 26 0 0 0
SMALL
MULLIKEN_CHARGES
****
Gaussian 16 # wB97XD def2tzvp, opt=(maxcycles=70, maxstep=1), freq=noraman, scrf=(
@<TRIPOS>ATOM
      1 C           0.7009    0.1254    0.2546 C.2     1  UNL1       -0.0580
      2 C           2.1404   -0.1387    0.6120 C.2     1  UNL1        0.3182
      3 O           2.6492    0.4961    1.5284 O.2     1  UNL1       -0.4848
      4 C          -0.2636   -0.7469    0.5163 C.2     1  UNL1       -0.2305
      5 C          -1.7194   -0.6404    0.3391 C.ar    1  UNL1        0.2521
      6 C          -2.4068   -1.7529   -0.1484 C.ar    1  UNL1       -0.2317
      7 C          -3.7784   -1.7104   -0.3364 C.ar    1  UNL1       -0.1439
      8 C          -4.4880   -0.5612   -0.0165 C.ar    1  UNL1       -0.1433
      9 C          -3.8177    0.5403    0.4959 C.ar    1  UNL1       -0.1300
     10 C          -2.4433    0.5035    0.6722 C.ar    1  UNL1       -0.2614
     11 H          -1.8569   -2.6553   -0.3883 H       1  UNL1        0.1473
     12 H          -4.2949   -2.5780   -0.7267 H       1  UNL1        0.1462
     13 H          -5.5609   -0.5281   -0.1562 H       1  UNL1        0.1478
     14 H          -4.3676    1.4331    0.7652 H       1  UNL1        0.1464
     15 H          -1.9345    1.3622    1.0883 H       1  UNL1        0.1638
     16 H           0.0859   -1.7090    0.8841 H       1  UNL1        0.1847
     17 BR          0.4397    1.8384   -0.5139 Br      1  UNL1       -0.0489
     18 N           2.7837   -1.0911   -0.0843 N.am    1  UNL1       -0.1051
     19 C           2.2750   -1.7439   -1.2770 C.3     1  UNL1       -0.2981
     20 C           4.1311   -1.4674    0.3000 C.3     1  UNL1       -0.2862
     21 H           1.3843   -1.2458   -1.6453 H       1  UNL1        0.1701
     22 H           3.0403   -1.7054   -2.0538 H       1  UNL1        0.1508
     23 H           2.0386   -2.7905   -1.0725 H       1  UNL1        0.1509
     24 H           4.3423   -1.0963    1.2977 H       1  UNL1        0.1502
     25 H           4.2155   -2.5549    0.2882 H       1  UNL1        0.1449
     26 H           4.8601   -1.0523   -0.4001 H       1  UNL1        0.1483
@<TRIPOS>BOND
     1    22    19    1
     2    21    19    1
     3    19    23    1
     4    19    18    1
     5    12     7    1
     6    17     1    1
     7    26    20    1
     8    11     6    1
     9     7     6   ar
    10     7     8   ar
    11    13     8    1
    12     6     5   ar
    13    18    20    1
    14    18     2   am
    15     8     9   ar
    16     1     4    2
    17     1     2    1
    18    25    20    1
    19    20    24    1
    20     5     4    1
    21     5    10   ar
    22     9    10   ar
    23     9    14    1
    24     4    16    1
    25     2     3    2
    26    10    15    1
