@<TRIPOS>MOLECULE
GS-741-0.out
 16 15 0 0 0
SMALL
MULLIKEN_CHARGES
****
Gaussian 16 # wB97XD def2tzvp, opt=(calcfc, maxcycles=70, maxstep=10), freq=norama
@<TRIPOS>ATOM
      1 C          -0.4120    1.0618    0.1107 C.2     1  UNL1       -0.0460
      2 C          -1.8598    0.6828    0.3243 C.2     1  UNL1        0.3732
      3 O          -2.3620    0.7555    1.4362 O.2     1  UNL1       -0.4708
      4 C           0.5193    0.1225    0.0291 C.2     1  UNL1       -0.0832
      5 BR          2.3632    0.4880   -0.1652 Br      1  UNL1       -0.0331
      6 BR          0.1255   -1.7258    0.1307 Br      1  UNL1       -0.0235
      7 C          -0.1761    2.5400    0.0785 C.3     1  UNL1       -0.3235
      8 H          -0.5564    2.9843    1.0003 H       1  UNL1        0.1541
      9 H           0.8763    2.7888   -0.0255 H       1  UNL1        0.1409
     10 H          -0.7285    2.9841   -0.7523 H       1  UNL1        0.1512
     11 N          -2.5333    0.3408   -0.7788 N.am    1  UNL1       -0.3042
     12 C          -3.9313   -0.0330   -0.7415 C.3     1  UNL1       -0.2526
     13 H          -2.0320    0.2745   -1.6474 H       1  UNL1        0.2852
     14 H          -4.5193    0.7463   -0.2570 H       1  UNL1        0.1410
     15 H          -4.2836   -0.1616   -1.7614 H       1  UNL1        0.1511
     16 H          -4.0731   -0.9666   -0.1942 H       1  UNL1        0.1402
@<TRIPOS>BOND
     1    15    12    1
     2    13    11    1
     3    11    12    1
     4    11     2   am
     5    10     7    1
     6    12    14    1
     7    12    16    1
     8     5     4    1
     9     9     7    1
    10     4     1    2
    11     4     6    1
    12     7     1    1
    13     7     8    1
    14     1     2    1
    15     2     3    2
