@<TRIPOS>MOLECULE
GS-788-0.out
 12 11 0 0 0
SMALL
MULLIKEN_CHARGES
****
Gaussian 16 # wB97XD def2tzvp, opt=(calcfc, maxcycles=70, maxstep=10), freq=norama
@<TRIPOS>ATOM
      1 C          -0.3927    0.1844    0.1152 C.2     1  UNL1       -0.0522
      2 C          -1.8400   -0.1687    0.3300 C.2     1  UNL1        0.4153
      3 O          -2.3797   -0.0882    1.3997 O.2     1  UNL1       -0.3769
      4 C           0.5647   -0.7328    0.0691 C.2     1  UNL1       -0.0247
      5 BR          2.3876   -0.3582   -0.1323 Br      1  UNL1        0.0268
      6 CL          0.1761   -2.4040    0.2125 Cl      1  UNL1       -0.0154
      7 BR         -0.0845    2.0286   -0.0121 Br      1  UNL1        0.0235
      8 O          -2.4146   -0.5378   -0.7979 O.3     1  UNL1       -0.2491
      9 C          -3.8042   -0.8915   -0.7195 C.3     1  UNL1       -0.2020
     10 H          -4.0926   -1.1588   -1.7307 H       1  UNL1        0.1556
     11 H          -3.9356   -1.7374   -0.0469 H       1  UNL1        0.1494
     12 H          -4.3862   -0.0422   -0.3661 H       1  UNL1        0.1498
@<TRIPOS>BOND
     1    10     9    1
     2     8     9    1
     3     8     2    1
     4     9    12    1
     5     9    11    1
     6     5     4    1
     7     7     1    1
     8     4     1    2
     9     4     6    1
    10     1     2    1
    11     2     3    2
