@<TRIPOS>MOLECULE
GS-765-0.out
 23 23 0 0 0
SMALL
MULLIKEN_CHARGES
****
Gaussian 16 # wB97XD def2tzvp, opt=(calcfc, maxcycles=70, maxstep=10), freq=norama
@<TRIPOS>ATOM
      1 C           0.3241    0.3596    0.1203 C.2     1  UNL1       -0.0851
      2 C           1.1005    1.6443    0.3137 C.2     1  UNL1        0.3141
      3 O           1.2132    2.1435    1.4228 O.2     1  UNL1       -0.4615
      4 C           0.9567   -0.8045    0.0748 C.2     1  UNL1       -0.0133
      5 BR          0.0733   -2.4676   -0.0343 Br      1  UNL1       -0.0052
      6 CL          2.6773   -0.9340    0.1539 Cl      1  UNL1       -0.0390
      7 C          -1.1502    0.5177    0.0460 C.ar    1  UNL1        0.2287
      8 C          -1.8240    0.2815   -1.1489 C.ar    1  UNL1       -0.2316
      9 C          -3.1968    0.4585   -1.2210 C.ar    1  UNL1       -0.1348
     10 C          -3.9048    0.8747   -0.1025 C.ar    1  UNL1       -0.1344
     11 C          -3.2351    1.1185    1.0881 C.ar    1  UNL1       -0.1411
     12 C          -1.8614    0.9462    1.1632 C.ar    1  UNL1       -0.2231
     13 H          -1.2700   -0.0416   -2.0214 H       1  UNL1        0.1613
     14 H          -3.7134    0.2717   -2.1536 H       1  UNL1        0.1474
     15 H          -4.9772    1.0110   -0.1593 H       1  UNL1        0.1487
     16 H          -3.7831    1.4438    1.9631 H       1  UNL1        0.1471
     17 H          -1.3356    1.1400    2.0891 H       1  UNL1        0.1487
     18 N           1.5831    2.1900   -0.8064 N.am    1  UNL1       -0.2893
     19 C           2.3252    3.4333   -0.7988 C.3     1  UNL1       -0.2582
     20 H           1.4600    1.6980   -1.6739 H       1  UNL1        0.2864
     21 H           2.5578    3.7037   -1.8253 H       1  UNL1        0.1514
     22 H           1.7332    4.2288   -0.3459 H       1  UNL1        0.1415
     23 H           3.2551    3.3291   -0.2377 H       1  UNL1        0.1413
@<TRIPOS>BOND
     1    14     9    1
     2    13     8    1
     3    21    19    1
     4    20    18    1
     5     9     8   ar
     6     9    10   ar
     7     8     7   ar
     8    18    19    1
     9    18     2   am
    10    19    22    1
    11    19    23    1
    12    15    10    1
    13    10    11   ar
    14     5     4    1
    15     7     1    1
    16     7    12   ar
    17     4     1    2
    18     4     6    1
    19     1     2    1
    20     2     3    2
    21    11    12   ar
    22    11    16    1
    23    12    17    1
