@<TRIPOS>MOLECULE
GS-761-0.out
 18 18 0 0 0
SMALL
MULLIKEN_CHARGES
****
Gaussian 16 # wB97XD def2tzvp, opt=(calcfc, maxcycles=70, maxstep=10), freq=norama
@<TRIPOS>ATOM
      1 C          -0.2179    0.9819   -0.0001 C.2     1  UNL1       -0.0821
      2 C          -0.2998    2.4626   -0.0003 C.2     1  UNL1        0.1669
      3 O           0.6787    3.1689   -0.0004 O.2     1  UNL1       -0.3571
      4 C          -1.3288    0.2366   -0.0000 C.2     1  UNL1        0.0409
      5 BR         -1.2816   -1.6425    0.0003 Br      1  UNL1        0.0299
      6 CL         -2.9254    0.8743   -0.0001 Cl      1  UNL1       -0.0139
      7 C           1.1406    0.3789   -0.0001 C.ar    1  UNL1        0.1753
      8 C           1.7856    0.1101    1.2020 C.ar    1  UNL1       -0.1979
      9 C           3.0600   -0.4359    1.2009 C.ar    1  UNL1       -0.1483
     10 C           3.6982   -0.7116   -0.0000 C.ar    1  UNL1       -0.1232
     11 C           3.0595   -0.4374   -1.2010 C.ar    1  UNL1       -0.1483
     12 C           1.7850    0.1087   -1.2021 C.ar    1  UNL1       -0.1979
     13 H           1.2855    0.3240    2.1386 H       1  UNL1        0.1492
     14 H           3.5548   -0.6467    2.1404 H       1  UNL1        0.1466
     15 H           4.6929   -1.1386   -0.0000 H       1  UNL1        0.1486
     16 H           3.5538   -0.6492   -2.1405 H       1  UNL1        0.1466
     17 H           1.2845    0.3214   -2.1387 H       1  UNL1        0.1492
     18 H          -1.3095    2.8975   -0.0003 H       1  UNL1        0.1153
@<TRIPOS>BOND
     1    16    11    1
     2    17    12    1
     3    12    11   ar
     4    12     7   ar
     5    11    10   ar
     6     3     2    2
     7     2    18    1
     8     2     1    1
     9     1     7    1
    10     1     4    2
    11     6     4    1
    12     7     8   ar
    13    10    15    1
    14    10     9   ar
    15     4     5    1
    16     9     8   ar
    17     9    14    1
    18     8    13    1
