@<TRIPOS>MOLECULE
GS-787-0.out
 10 9 0 0 0
SMALL
MULLIKEN_CHARGES
****
Gaussian 16 # wB97XD def2tzvp, opt=(calcfc, maxcycles=70, maxstep=10), freq=norama
@<TRIPOS>ATOM
      1 C          -0.6607    0.1267   -0.0153 C.2     1  UNL1       -0.0499
      2 C          -1.9120    0.9758   -0.1119 C.2     1  UNL1        0.3080
      3 O          -2.4403    1.1696   -1.1894 O.2     1  UNL1       -0.4284
      4 C           0.5631    0.6392   -0.0145 C.2     1  UNL1       -0.0163
      5 BR          2.1433   -0.3685    0.0175 Br      1  UNL1        0.0200
      6 CL          0.7986    2.3455   -0.0617 Cl      1  UNL1       -0.0191
      7 BR         -1.0105   -1.7170    0.0112 Br      1  UNL1        0.0154
      8 N          -2.3655    1.4373    1.0584 N.am    1  UNL1       -0.4263
      9 H          -3.2002    1.9990    1.0789 H       1  UNL1        0.2915
     10 H          -1.8851    1.2524    1.9209 H       1  UNL1        0.3051
@<TRIPOS>BOND
     1     3     2    2
     2     2     1    1
     3     2     8   am
     4     6     4    1
     5     1     4    2
     6     1     7    1
     7     4     5    1
     8     8     9    1
     9     8    10    1
