@<TRIPOS>MOLECULE
GS-73-0.out
 18 18 0 0 0
SMALL
MULLIKEN_CHARGES
****
Gaussian 16 # wb97xd def2tzvp opt=(calcfc, maxcycles=100, maxstep=10) freq=noraman
@<TRIPOS>ATOM
      1 C          -1.7166   -0.0049    0.0001 C.2     1  UNL1        0.0741
      2 C          -3.0272   -0.6990    0.0005 C.2     1  UNL1        0.1612
      3 O          -3.1566   -1.8977    0.0028 O.2     1  UNL1       -0.3631
      4 C          -0.5770   -0.7053    0.0014 C.2     1  UNL1       -0.2111
      5 C           0.8341   -0.3439    0.0010 C.ar    1  UNL1        0.2482
      6 C           1.3330    0.9640    0.0042 C.ar    1  UNL1       -0.2176
      7 C           2.6982    1.1932    0.0036 C.ar    1  UNL1       -0.1480
      8 C           3.5921    0.1313   -0.0004 C.ar    1  UNL1       -0.1190
      9 C           3.1138   -1.1712   -0.0034 C.ar    1  UNL1       -0.1524
     10 C           1.7505   -1.4036   -0.0026 C.ar    1  UNL1       -0.1966
     11 H           0.6597    1.8064    0.0075 H       1  UNL1        0.1502
     12 H           3.0671    2.2108    0.0062 H       1  UNL1        0.1487
     13 H           4.6581    0.3192   -0.0010 H       1  UNL1        0.1516
     14 H           3.8028   -2.0057   -0.0063 H       1  UNL1        0.1491
     15 H           1.3811   -2.4219   -0.0048 H       1  UNL1        0.1475
     16 H          -0.7649   -1.7758    0.0026 H       1  UNL1        0.1518
     17 CL         -1.8620    1.7242   -0.0030 Cl      1  UNL1       -0.0917
     18 H          -3.9025   -0.0270   -0.0014 H       1  UNL1        0.1168
@<TRIPOS>BOND
     1    14     9    1
     2    15    10    1
     3     9    10   ar
     4     9     8   ar
     5    17     1    1
     6    10     5   ar
     7    18     2    1
     8    13     8    1
     9     8     7   ar
    10     1     2    1
    11     1     4    2
    12     2     3    2
    13     5     4    1
    14     5     6   ar
    15     4    16    1
    16     7     6   ar
    17     7    12    1
    18     6    11    1
