@<TRIPOS>MOLECULE
GS-742-0.out
 19 18 0 0 0
SMALL
MULLIKEN_CHARGES
****
Gaussian 16 # wb97xd def2tzvp opt=(calcfc, maxcycles=100, maxstep=10) freq=noraman
@<TRIPOS>ATOM
      1 C           0.2889   -1.0090   -0.2832 C.2     1  UNL1       -0.0736
      2 C           1.6983   -0.5710   -0.6159 C.2     1  UNL1        0.3311
      3 O           2.0201   -0.5178   -1.7969 O.2     1  UNL1       -0.4817
      4 C          -0.6657   -0.1067   -0.1114 C.2     1  UNL1       -0.0847
      5 BR         -2.4832   -0.5362    0.1713 Br      1  UNL1       -0.0341
      6 BR         -0.3160    1.7521   -0.1226 Br      1  UNL1       -0.0252
      7 C           0.1045   -2.4945   -0.2849 C.3     1  UNL1       -0.3197
      8 H           0.4251   -2.8971   -1.2476 H       1  UNL1        0.1551
      9 H           0.7355   -2.9457    0.4845 H       1  UNL1        0.1539
     10 H          -0.9274   -2.7834   -0.1059 H       1  UNL1        0.1424
     11 N           2.5330   -0.3255    0.4063 N.am    1  UNL1       -0.1008
     12 C           3.8998    0.0808    0.1454 C.3     1  UNL1       -0.2762
     13 C           2.1579   -0.3805    1.8051 C.3     1  UNL1       -0.3012
     14 H           4.0796    0.0791   -0.9247 H       1  UNL1        0.1523
     15 H           4.0713    1.0842    0.5414 H       1  UNL1        0.1425
     16 H           4.5910   -0.6095    0.6325 H       1  UNL1        0.1441
     17 H           1.1424   -0.7463    1.9226 H       1  UNL1        0.1723
     18 H           2.8352   -1.0488    2.3397 H       1  UNL1        0.1516
     19 H           2.2247    0.6141    2.2516 H       1  UNL1        0.1520
@<TRIPOS>BOND
     1     3     2    2
     2     8     7    1
     3    14    12    1
     4     2     1    1
     5     2    11   am
     6     7     1    1
     7     7    10    1
     8     7     9    1
     9     1     4    2
    10     6     4    1
    11     4     5    1
    12    12    11    1
    13    12    15    1
    14    12    16    1
    15    11    13    1
    16    13    17    1
    17    13    19    1
    18    13    18    1
