@<TRIPOS>MOLECULE
GS-791-0.out
 20 20 0 0 0
SMALL
MULLIKEN_CHARGES
****
Gaussian 16 # wB97XD def2tzvp, opt=(calcfc, maxcycles=70, maxstep=10), freq=norama
@<TRIPOS>ATOM
      1 C           0.8309   -0.3299    0.2195 C.2     1  UNL1       -0.1296
      2 C          -0.6111   -0.3333    0.6814 C.2     1  UNL1        0.4324
      3 O          -0.8837   -0.6281    1.8265 O.2     1  UNL1       -0.4285
      4 C           1.5679    0.7729    0.1674 C.2     1  UNL1       -0.0186
      5 BR          3.3785    0.8254   -0.3103 Br      1  UNL1        0.0244
      6 CL          0.8838    2.3022    0.5704 Cl      1  UNL1       -0.0172
      7 BR          1.4964   -2.0407   -0.1693 Br      1  UNL1        0.0184
      8 N          -1.4848   -0.0154   -0.2971 N.am    1  UNL1       -0.2609
      9 C          -2.8898    0.0727   -0.2360 C.ar    1  UNL1        0.3058
     10 C          -3.5494    0.4336   -1.4103 C.ar    1  UNL1       -0.2924
     11 C          -4.9278    0.5416   -1.4297 C.ar    1  UNL1       -0.0986
     12 C          -5.6665    0.2921   -0.2808 C.ar    1  UNL1       -0.1797
     13 C          -5.0072   -0.0661    0.8838 C.ar    1  UNL1       -0.1102
     14 C          -3.6241   -0.1790    0.9195 C.ar    1  UNL1       -0.2866
     15 H          -1.0786    0.1968   -1.1947 H       1  UNL1        0.2834
     16 H          -2.9795    0.6298   -2.3109 H       1  UNL1        0.1492
     17 H          -5.4257    0.8226   -2.3487 H       1  UNL1        0.1489
     18 H          -6.7451    0.3767   -0.2956 H       1  UNL1        0.1460
     19 H          -5.5714   -0.2633    1.7866 H       1  UNL1        0.1473
     20 H          -3.1211   -0.4584    1.8305 H       1  UNL1        0.1665
@<TRIPOS>BOND
     1    17    11    1
     2    16    10    1
     3    11    10   ar
     4    11    12   ar
     5    10     9   ar
     6    15     8    1
     7     5     4    1
     8     8     9    1
     9     8     2   am
    10    18    12    1
    11    12    13   ar
    12     9    14   ar
    13     7     1    1
    14     4     1    2
    15     4     6    1
    16     1     2    1
    17     2     3    2
    18    13    14   ar
    19    13    19    1
    20    14    20    1
