@<TRIPOS>MOLECULE
GS-780-0.out
 15 14 0 0 0
SMALL
MULLIKEN_CHARGES
****
Gaussian 16 # wB97XD def2tzvp, opt=(calcfc, maxcycles=70, maxstep=10), freq=norama
@<TRIPOS>ATOM
      1 C          -0.3899    0.7691    0.0814 C.2     1  UNL1       -0.0336
      2 C          -1.8332    0.4106    0.3028 C.2     1  UNL1        0.4105
      3 O          -2.3934    0.5689    1.3561 O.2     1  UNL1       -0.3966
      4 C           0.5207   -0.1936    0.0682 C.2     1  UNL1       -0.0292
      5 BR          2.3708    0.1114   -0.1373 Br      1  UNL1       -0.0204
      6 CL          0.1115   -1.8618    0.2640 Cl      1  UNL1       -0.0449
      7 C          -0.1348    2.2377   -0.0486 C.3     1  UNL1       -0.3212
      8 H          -0.5002    2.7516    0.8425 H       1  UNL1        0.1548
      9 H           0.9219    2.4565   -0.1736 H       1  UNL1        0.1430
     10 H          -0.6808    2.6352   -0.9067 H       1  UNL1        0.1546
     11 O          -2.4084   -0.0356   -0.8016 O.3     1  UNL1       -0.2592
     12 C          -3.7965   -0.3818   -0.7035 C.3     1  UNL1       -0.2021
     13 H          -4.0847   -0.7149   -1.6954 H       1  UNL1        0.1527
     14 H          -3.9322   -1.1823    0.0221 H       1  UNL1        0.1457
     15 H          -4.3814    0.4874   -0.4073 H       1  UNL1        0.1458
@<TRIPOS>BOND
     1    13    12    1
     2    10     7    1
     3    11    12    1
     4    11     2    1
     5    12    15    1
     6    12    14    1
     7     9     7    1
     8     5     4    1
     9     7     1    1
    10     7     8    1
    11     4     1    2
    12     4     6    1
    13     1     2    1
    14     2     3    2
