@<TRIPOS>MOLECULE
GS-74-1.out
 21 21 0 0 0
SMALL
MULLIKEN_CHARGES
****
Gaussian 16 # wB97XD def2tzvp, opt=(maxcycles=70, maxstep=1), freq=noraman, scrf=(
@<TRIPOS>ATOM
      1 C           1.3529   -0.0236   -0.0259 C.2     1  UNL1       -0.0090
      2 C           2.6812   -0.7261   -0.0909 C.2     1  UNL1        0.2964
      3 O           2.7168   -1.9172   -0.3113 O.2     1  UNL1       -0.3966
      4 C           0.2253   -0.7327   -0.1272 C.2     1  UNL1       -0.1592
      5 C          -1.1877   -0.3643   -0.0822 C.ar    1  UNL1        0.2350
      6 C          -1.6903    0.9058   -0.3805 C.ar    1  UNL1       -0.2270
      7 C          -3.0519    1.1530   -0.3225 C.ar    1  UNL1       -0.1439
      8 C          -3.9356    0.1465    0.0407 C.ar    1  UNL1       -0.1254
      9 C          -3.4522   -1.1220    0.3287 C.ar    1  UNL1       -0.1525
     10 C          -2.0941   -1.3758    0.2553 C.ar    1  UNL1       -0.2131
     11 H          -1.0229    1.6998   -0.6785 H       1  UNL1        0.1539
     12 H          -3.4250    2.1397   -0.5650 H       1  UNL1        0.1478
     13 H          -4.9981    0.3479    0.0896 H       1  UNL1        0.1501
     14 H          -4.1346   -1.9164    0.6025 H       1  UNL1        0.1479
     15 H          -1.7221   -2.3710    0.4675 H       1  UNL1        0.1463
     16 H           0.4151   -1.7965   -0.2323 H       1  UNL1        0.1635
     17 CL          1.3962    1.6950    0.2344 Cl      1  UNL1       -0.0936
     18 C           3.9347    0.0710    0.1213 C.3     1  UNL1       -0.3806
     19 H           4.0219    0.8497   -0.6383 H       1  UNL1        0.1596
     20 H           3.9106    0.5725    1.0901 H       1  UNL1        0.1585
     21 H           4.7915   -0.5952    0.0679 H       1  UNL1        0.1418
@<TRIPOS>BOND
     1    11     6    1
     2    19    18    1
     3    12     7    1
     4     6     7   ar
     5     6     5   ar
     6     7     8   ar
     7     3     2    2
     8    16     4    1
     9     4     5    1
    10     4     1    2
    11     2     1    1
    12     2    18    1
    13     5    10   ar
    14     1    17    1
    15     8    13    1
    16     8     9   ar
    17    21    18    1
    18    18    20    1
    19    10     9   ar
    20    10    15    1
    21     9    14    1
