@<TRIPOS>MOLECULE
GS-79-1.out
 30 31 0 0 0
SMALL
MULLIKEN_CHARGES
****
Gaussian 16 # wB97XD def2tzvp, opt=(maxcycles=70, maxstep=1), freq=noraman, scrf=(
@<TRIPOS>ATOM
      1 C           0.6186    0.1019    0.0449 C.2     1  UNL1       -0.0235
      2 C          -0.7584   -0.5145    0.1086 C.2     1  UNL1        0.4248
      3 O          -0.8783   -1.7166    0.2727 O.2     1  UNL1       -0.4777
      4 C           1.6840   -0.6940    0.1216 C.2     1  UNL1       -0.1555
      5 C           3.1187   -0.4078    0.0736 C.ar    1  UNL1        0.2319
      6 C           3.7005    0.7695    0.5489 C.ar    1  UNL1       -0.2361
      7 C           5.0724    0.9513    0.4809 C.ar    1  UNL1       -0.1439
      8 C           5.8852   -0.0305   -0.0675 C.ar    1  UNL1       -0.1290
      9 C           5.3209   -1.2107   -0.5310 C.ar    1  UNL1       -0.1482
     10 C           3.9526   -1.4018   -0.4476 C.ar    1  UNL1       -0.2316
     11 H           3.0874    1.5382    0.9955 H       1  UNL1        0.1585
     12 H           5.5088    1.8655    0.8623 H       1  UNL1        0.1474
     13 H           6.9558    0.1192   -0.1234 H       1  UNL1        0.1494
     14 H           5.9483   -1.9872   -0.9493 H       1  UNL1        0.1474
     15 H           3.5170   -2.3304   -0.7964 H       1  UNL1        0.1463
     16 H           1.4206   -1.7439    0.1974 H       1  UNL1        0.1741
     17 CL          0.7294    1.8253   -0.1801 Cl      1  UNL1       -0.0990
     18 N          -1.7917    0.3469   -0.0278 N.am    1  UNL1       -0.2552
     19 C          -3.1721    0.0815   -0.0189 C.ar    1  UNL1        0.3048
     20 C          -4.0193    1.1709   -0.2286 C.ar    1  UNL1       -0.3053
     21 C          -5.3913    1.0007   -0.2317 C.ar    1  UNL1       -0.0958
     22 C          -5.9416   -0.2576   -0.0264 C.ar    1  UNL1       -0.1843
     23 C          -5.0992   -1.3376    0.1813 C.ar    1  UNL1       -0.1100
     24 C          -3.7195   -1.1827    0.1876 C.ar    1  UNL1       -0.2875
     25 H          -1.5446    1.3142   -0.1632 H       1  UNL1        0.2464
     26 H          -3.5973    2.1559   -0.3903 H       1  UNL1        0.1468
     27 H          -6.0325    1.8571   -0.3961 H       1  UNL1        0.1475
     28 H          -7.0153   -0.3922   -0.0288 H       1  UNL1        0.1446
     29 H          -5.5148   -2.3242    0.3430 H       1  UNL1        0.1455
     30 H          -3.0737   -2.0294    0.3501 H       1  UNL1        0.1671
@<TRIPOS>BOND
     1    14     9    1
     2    15    10    1
     3     9    10   ar
     4     9     8   ar
     5    10     5   ar
     6    27    21    1
     7    26    20    1
     8    21    20   ar
     9    21    22   ar
    10    20    19   ar
    11    17     1    1
    12    25    18    1
    13    13     8    1
    14     8     7   ar
    15    28    22    1
    16    18    19    1
    17    18     2   am
    18    22    23   ar
    19    19    24   ar
    20     1     2    1
    21     1     4    2
    22     5     4    1
    23     5     6   ar
    24     2     3    2
    25     4    16    1
    26    23    24   ar
    27    23    29    1
    28    24    30    1
    29     7     6   ar
    30     7    12    1
    31     6    11    1
