@<TRIPOS>MOLECULE
GS-725-0.out
 23 23 0 0 0
SMALL
MULLIKEN_CHARGES
****
Gaussian 16 # wB97XD def2tzvp, opt=(calcfc, maxcycles=70, maxstep=10), freq=norama
@<TRIPOS>ATOM
      1 C           0.1176    0.4504    0.1067 C.2     1  UNL1       -0.0586
      2 C          -0.3480    1.8782    0.2959 C.2     1  UNL1        0.3233
      3 O          -0.4061    2.3732    1.4109 O.2     1  UNL1       -0.4596
      4 C          -0.7556   -0.5449    0.0434 C.2     1  UNL1       -0.0689
      5 BR         -0.2528   -2.3598   -0.0616 Br      1  UNL1       -0.0088
      6 BR         -2.6229   -0.2663    0.0966 Br      1  UNL1       -0.0101
      7 C           1.5922    0.2787    0.0538 C.ar    1  UNL1        0.2170
      8 C           2.3647    0.5509    1.1793 C.ar    1  UNL1       -0.2209
      9 C           3.7435    0.4166    1.1242 C.ar    1  UNL1       -0.1445
     10 C           4.3594    0.0215   -0.0548 C.ar    1  UNL1       -0.1322
     11 C           3.5925   -0.2389   -1.1816 C.ar    1  UNL1       -0.1359
     12 C           2.2136   -0.1103   -1.1293 C.ar    1  UNL1       -0.2318
     13 H           1.8819    0.8642    2.0960 H       1  UNL1        0.1494
     14 H           4.3376    0.6218    2.0054 H       1  UNL1        0.1472
     15 H           5.4362   -0.0811   -0.0962 H       1  UNL1        0.1488
     16 H           4.0682   -0.5423   -2.1053 H       1  UNL1        0.1474
     17 H           1.6142   -0.3115   -2.0084 H       1  UNL1        0.1619
     18 N          -0.6215    2.5382   -0.8332 N.am    1  UNL1       -0.2866
     19 C          -1.0529    3.9204   -0.8307 C.3     1  UNL1       -0.2583
     20 H          -0.5616    2.0442   -1.7064 H       1  UNL1        0.2862
     21 H          -1.1718    4.2476   -1.8599 H       1  UNL1        0.1515
     22 H          -2.0049    4.0293   -0.3092 H       1  UNL1        0.1416
     23 H          -0.3125    4.5517   -0.3387 H       1  UNL1        0.1417
@<TRIPOS>BOND
     1    16    11    1
     2    17    12    1
     3    21    19    1
     4    20    18    1
     5    11    12   ar
     6    11    10   ar
     7    12     7   ar
     8    18    19    1
     9    18     2   am
    10    19    23    1
    11    19    22    1
    12    15    10    1
    13     5     4    1
    14    10     9   ar
    15     4     6    1
    16     4     1    2
    17     7     1    1
    18     7     8   ar
    19     1     2    1
    20     2     3    2
    21     9     8   ar
    22     9    14    1
    23     8    13    1
