@<TRIPOS>MOLECULE
GS-708-0.out
 15 14 0 0 0
SMALL
MULLIKEN_CHARGES
****
Gaussian 16 # wB97XD def2tzvp, opt=(calcfc, maxcycles=70, maxstep=10), freq=norama
@<TRIPOS>ATOM
      1 C           0.3624    0.1579    0.0972 C.2     1  UNL1       -0.1002
      2 C           1.7501    0.7139    0.2186 C.2     1  UNL1        0.4332
      3 O           2.0435    1.6268    0.9477 O.2     1  UNL1       -0.4007
      4 C          -0.7038    0.9503   -0.0087 C.2     1  UNL1        0.0435
      5 BR         -2.4483    0.2247   -0.1208 Br      1  UNL1       -0.0369
      6 C          -0.6911    2.4429   -0.0735 C.3     1  UNL1       -0.3572
      7 H           0.3208    2.8345   -0.1066 H       1  UNL1        0.1511
      8 H          -1.2376    2.7737   -0.9571 H       1  UNL1        0.1552
      9 H          -1.1958    2.8537    0.8025 H       1  UNL1        0.1585
     10 BR          0.2731   -1.7284    0.1290 Br      1  UNL1       -0.0267
     11 O           2.6067    0.0810   -0.5656 O.3     1  UNL1       -0.2638
     12 C           3.9702    0.5147   -0.5004 C.3     1  UNL1       -0.2002
     13 H           4.5119   -0.1242   -1.1906 H       1  UNL1        0.1526
     14 H           4.0490    1.5574   -0.8038 H       1  UNL1        0.1459
     15 H           4.3546    0.3957    0.5114 H       1  UNL1        0.1459
@<TRIPOS>BOND
     1    13    12    1
     2     8     6    1
     3    14    12    1
     4    11    12    1
     5    11     2    1
     6    12    15    1
     7     5     4    1
     8     7     6    1
     9     6     4    1
    10     6     9    1
    11     4     1    2
    12     1    10    1
    13     1     2    1
    14     2     3    2
