@<TRIPOS>MOLECULE
GS-701-0.out
 19 18 0 0 0
SMALL
MULLIKEN_CHARGES
****
Gaussian 16 # wB97XD def2tzvp, opt=(calcfc, maxcycles=70, maxstep=10), freq=norama
@<TRIPOS>ATOM
      1 C          -0.3651    0.6167    0.0290 C.2     1  UNL1       -0.0588
      2 C          -1.8305    0.3498    0.2781 C.2     1  UNL1        0.3291
      3 O          -2.3975    0.8075    1.2619 O.2     1  UNL1       -0.4802
      4 C           0.5019   -0.3811    0.1555 C.2     1  UNL1        0.0048
      5 BR          2.3769   -0.0743   -0.1104 Br      1  UNL1       -0.1133
      6 C           0.2143   -1.8008    0.5252 C.3     1  UNL1       -0.3770
      7 H          -0.8449   -1.9473    0.7303 H       1  UNL1        0.1468
      8 H           0.5086   -2.4765   -0.2799 H       1  UNL1        0.1516
      9 H           0.7805   -2.0808    1.4147 H       1  UNL1        0.1503
     10 C          -0.0741    2.0521   -0.2829 C.3     1  UNL1       -0.3280
     11 H          -0.4489    2.6842    0.5244 H       1  UNL1        0.1455
     12 H           0.9892    2.2368   -0.4088 H       1  UNL1        0.1356
     13 H          -0.5920    2.3515   -1.1972 H       1  UNL1        0.1432
     14 N          -2.4610   -0.3650   -0.6638 N.am    1  UNL1       -0.3089
     15 C          -3.8703   -0.6821   -0.5778 C.3     1  UNL1       -0.2516
     16 H          -1.9293   -0.6986   -1.4480 H       1  UNL1        0.2843
     17 H          -4.1547   -1.2438   -1.4636 H       1  UNL1        0.1494
     18 H          -4.0801   -1.2842    0.3076 H       1  UNL1        0.1390
     19 H          -4.4688    0.2282   -0.5263 H       1  UNL1        0.1383
@<TRIPOS>BOND
     1    17    15    1
     2    16    14    1
     3    13    10    1
     4    14    15    1
     5    14     2   am
     6    15    19    1
     7    15    18    1
     8    12    10    1
     9    10     1    1
    10    10    11    1
    11     8     6    1
    12     5     4    1
    13     1     4    2
    14     1     2    1
    15     4     6    1
    16     2     3    2
    17     6     7    1
    18     6     9    1
