@<TRIPOS>MOLECULE
GS-774-0.out
 16 15 0 0 0
SMALL
MULLIKEN_CHARGES
****
Gaussian 16 # wB97XD def2tzvp, opt=(calcfc, maxcycles=70, maxstep=10), freq=norama
@<TRIPOS>ATOM
      1 C          -0.2099   -0.9047   -0.1724 C.2     1  UNL1       -0.2411
      2 C          -1.6500   -0.8382    0.2487 C.2     1  UNL1        0.3434
      3 O          -2.0028   -1.5692    1.1677 O.2     1  UNL1       -0.4872
      4 C           0.7066   -0.0094    0.1472 C.2     1  UNL1        0.0172
      5 BR          2.5333   -0.2548   -0.2537 Br      1  UNL1       -0.0152
      6 CL          0.3426    1.4664    0.9597 Cl      1  UNL1       -0.0377
      7 H           0.0938   -1.8206   -0.6628 H       1  UNL1        0.1980
      8 N          -2.4730   -0.0093   -0.4119 N.am    1  UNL1       -0.1109
      9 C          -3.8609    0.1042   -0.0076 C.3     1  UNL1       -0.2769
     10 C          -2.0884    0.8078   -1.5458 C.3     1  UNL1       -0.3008
     11 H          -4.0193   -0.4573    0.9073 H       1  UNL1        0.1511
     12 H          -4.1060    1.1544    0.1613 H       1  UNL1        0.1421
     13 H          -4.5153   -0.2856   -0.7904 H       1  UNL1        0.1467
     14 H          -1.0890    0.5542   -1.8855 H       1  UNL1        0.1691
     15 H          -2.7869    0.6363   -2.3664 H       1  UNL1        0.1490
     16 H          -2.1169    1.8667   -1.2795 H       1  UNL1        0.1530
@<TRIPOS>BOND
     1    15    10    1
     2    14    10    1
     3    10    16    1
     4    10     8    1
     5    13     9    1
     6     7     1    1
     7     8     9    1
     8     8     2   am
     9     5     4    1
    10     1     4    2
    11     1     2    1
    12     9    12    1
    13     9    11    1
    14     4     6    1
    15     2     3    2
