@<TRIPOS>MOLECULE
GS-707-1.out
 13 12 0 0 0
SMALL
MULLIKEN_CHARGES
****
Gaussian 16 # wB97XD def2tzvp, opt=(calcfc, maxcycles=70, maxstep=1), freq=noraman
@<TRIPOS>ATOM
      1 C          -0.6281    0.2356   -0.0250 C.2     1  UNL1       -0.0412
      2 C          -1.9821    0.9036   -0.1208 C.2     1  UNL1        0.2825
      3 O          -2.6206    0.8798   -1.1568 O.2     1  UNL1       -0.4347
      4 C           0.5098    0.9173   -0.0499 C.2     1  UNL1       -0.0065
      5 BR          2.1905    0.0435    0.0038 Br      1  UNL1       -0.0522
      6 C           0.6109    2.4062   -0.1421 C.3     1  UNL1       -0.3571
      7 H          -0.3724    2.8692   -0.2013 H       1  UNL1        0.1532
      8 H           1.1320    2.8032    0.7302 H       1  UNL1        0.1576
      9 H           1.1815    2.6852   -1.0287 H       1  UNL1        0.1574
     10 BR         -0.7643   -1.6433    0.0484 Br      1  UNL1       -0.0220
     11 N          -2.4009    1.4876    1.0101 N.am    1  UNL1       -0.4298
     12 H          -3.2987    1.9417    1.0298 H       1  UNL1        0.2889
     13 H          -1.8495    1.4669    1.8491 H       1  UNL1        0.3039
@<TRIPOS>BOND
     1     3     2    2
     2     9     6    1
     3     7     6    1
     4     6     4    1
     5     6     8    1
     6     2     1    1
     7     2    11   am
     8     4     1    2
     9     4     5    1
    10     1    10    1
    11    11    12    1
    12    11    13    1
