@<TRIPOS>MOLECULE
GS-769-0.out
 8 7 0 0 0
SMALL
MULLIKEN_CHARGES
****
Gaussian 16 # wB97XD def2tzvp, opt=(calcfc, maxcycles=70, maxstep=10), freq=norama
@<TRIPOS>ATOM
      1 C          -1.1467   -0.6815    0.0000 C.2     1  UNL1       -0.1925
      2 C          -2.5478   -0.2467    0.0000 C.2     1  UNL1        0.1735
      3 O          -3.4656   -1.0338   -0.0000 O.2     1  UNL1       -0.3643
      4 C          -0.1036    0.1463    0.0000 C.2     1  UNL1        0.0667
      5 BR          1.6583   -0.5055   -0.0000 Br      1  UNL1        0.0214
      6 CL         -0.2248    1.8568   -0.0000 Cl      1  UNL1       -0.0055
      7 H          -0.9706   -1.7492    0.0000 H       1  UNL1        0.1853
      8 H          -2.7328    0.8388    0.0000 H       1  UNL1        0.1154
@<TRIPOS>BOND
     1     3     2    2
     2     4     5    1
     3     4     6    1
     4     4     1    2
     5     1     2    1
     6     1     7    1
     7     2     8    1
