@<TRIPOS>MOLECULE
GS-703-0.out
 26 26 0 0 0
SMALL
MULLIKEN_CHARGES
****
Gaussian 16 # wB97XD def2tzvp, opt=(calcfc, maxcycles=70, maxstep=10), freq=norama
@<TRIPOS>ATOM
      1 C          -1.1827    0.7671   -0.2439 C.2     1  UNL1       -0.0886
      2 C           0.2674    0.9727    0.1273 C.2     1  UNL1        0.3872
      3 O           0.6185    1.9595    0.7487 O.2     1  UNL1       -0.4566
      4 C          -1.8671   -0.2041    0.3501 C.2     1  UNL1        0.0095
      5 BR         -3.7203   -0.4695   -0.0589 Br      1  UNL1       -0.1054
      6 C          -1.3761   -1.1702    1.3800 C.3     1  UNL1       -0.3828
      7 H          -0.3425   -0.9665    1.6551 H       1  UNL1        0.1467
      8 H          -1.9897   -1.1044    2.2795 H       1  UNL1        0.1537
      9 H          -1.4416   -2.1947    1.0096 H       1  UNL1        0.1546
     10 C          -1.6845    1.7776   -1.2286 C.3     1  UNL1       -0.3334
     11 H          -1.5267    2.7827   -0.8332 H       1  UNL1        0.1482
     12 H          -1.1251    1.7040   -2.1641 H       1  UNL1        0.1453
     13 H          -2.7414    1.6467   -1.4440 H       1  UNL1        0.1371
     14 N           1.1000    0.0066   -0.3354 N.am    1  UNL1       -0.2709
     15 C           2.4939   -0.1171   -0.1905 C.ar    1  UNL1        0.3120
     16 C           3.2756    0.7823    0.5305 C.ar    1  UNL1       -0.2923
     17 C           4.6452    0.5743    0.6222 C.ar    1  UNL1       -0.1098
     18 C           5.2479   -0.5124    0.0096 C.ar    1  UNL1       -0.1832
     19 C           4.4637   -1.4067   -0.7069 C.ar    1  UNL1       -0.0978
     20 C           3.0983   -1.2130   -0.8074 C.ar    1  UNL1       -0.3011
     21 H           0.6539   -0.7287   -0.8597 H       1  UNL1        0.2791
     22 H           2.8162    1.6309    1.0101 H       1  UNL1        0.1643
     23 H           5.2444    1.2790    1.1849 H       1  UNL1        0.1455
     24 H           6.3165   -0.6633    0.0885 H       1  UNL1        0.1445
     25 H           4.9159   -2.2623   -1.1920 H       1  UNL1        0.1473
     26 H           2.4930   -1.9156   -1.3681 H       1  UNL1        0.1469
@<TRIPOS>BOND
     1    12    10    1
     2    13    10    1
     3    26    20    1
     4    10    11    1
     5    10     1    1
     6    25    19    1
     7    21    14    1
     8    20    19   ar
     9    20    15   ar
    10    19    18   ar
    11    14    15    1
    12    14     2   am
    13     1     2    1
    14     1     4    2
    15    15    16   ar
    16     5     4    1
    17    18    24    1
    18    18    17   ar
    19     2     3    2
    20     4     6    1
    21    16    17   ar
    22    16    22    1
    23    17    23    1
    24     9     6    1
    25     6     7    1
    26     6     8    1
