@<TRIPOS>MOLECULE
GS-721-1.out
 18 18 0 0 0
SMALL
MULLIKEN_CHARGES
****
Gaussian 16 # wB97XD def2tzvp, opt=(calcfc, maxcycles=70, maxstep=1), freq=noraman
@<TRIPOS>ATOM
      1 C           0.0969    0.8743    0.0002 C.2     1  UNL1       -0.0606
      2 C          -0.1460    2.3386    0.0004 C.2     1  UNL1        0.1688
      3 O           0.7494    3.1469    0.0006 O.2     1  UNL1       -0.3540
      4 C          -0.9176    0.0032   -0.0000 C.2     1  UNL1       -0.0130
      5 BR         -0.6390   -1.8554   -0.0003 Br      1  UNL1        0.0262
      6 BR         -2.7407    0.4790   -0.0000 Br      1  UNL1        0.0118
      7 C           1.5170    0.4330    0.0001 C.ar    1  UNL1        0.1751
      8 C           2.1882    0.2405   -1.2020 C.ar    1  UNL1       -0.1970
      9 C           3.5176   -0.1534   -1.2009 C.ar    1  UNL1       -0.1503
     10 C           4.1837   -0.3521    0.0001 C.ar    1  UNL1       -0.1211
     11 C           3.5175   -0.1538    1.2011 C.ar    1  UNL1       -0.1503
     12 C           2.1881    0.2401    1.2023 C.ar    1  UNL1       -0.1970
     13 H           1.6664    0.3941   -2.1385 H       1  UNL1        0.1492
     14 H           4.0334   -0.3055   -2.1403 H       1  UNL1        0.1466
     15 H           5.2214   -0.6603    0.0001 H       1  UNL1        0.1487
     16 H           4.0332   -0.3062    2.1406 H       1  UNL1        0.1466
     17 H           1.6662    0.3934    2.1388 H       1  UNL1        0.1492
     18 H          -1.1973    2.6606    0.0004 H       1  UNL1        0.1211
@<TRIPOS>BOND
     1    14     9    1
     2    13     8    1
     3     8     9   ar
     4     8     7   ar
     5     9    10   ar
     6     5     4    1
     7     6     4    1
     8     4     1    2
     9    15    10    1
    10    10    11   ar
    11     7     1    1
    12     7    12   ar
    13     1     2    1
    14     2    18    1
    15     2     3    2
    16    11    12   ar
    17    11    16    1
    18    12    17    1
