@<TRIPOS>MOLECULE
GS-726-1.out
 26 26 0 0 0
SMALL
MULLIKEN_CHARGES
****
Gaussian 16 # wB97XD def2tzvp, opt=(calcfc, maxcycles=70, maxstep=1), freq=noraman
@<TRIPOS>ATOM
      1 C           0.1338    0.3208   -0.2129 C.2     1  UNL1       -0.0940
      2 C          -0.3458    1.7198   -0.5435 C.2     1  UNL1        0.2868
      3 O          -0.4352    2.0350   -1.7236 O.2     1  UNL1       -0.4723
      4 C          -0.7291   -0.6801   -0.1038 C.2     1  UNL1       -0.0562
      5 BR         -0.2222   -2.4863    0.0870 Br      1  UNL1       -0.0078
      6 BR         -2.5971   -0.4054   -0.1493 Br      1  UNL1       -0.0116
      7 C           1.6104    0.1780   -0.1337 C.ar    1  UNL1        0.2227
      8 C           2.2195   -0.2502    1.0430 C.ar    1  UNL1       -0.2465
      9 C           3.5997   -0.3486    1.1190 C.ar    1  UNL1       -0.1422
     10 C           4.3829   -0.0204    0.0218 C.ar    1  UNL1       -0.1304
     11 C           3.7808    0.4129   -1.1508 C.ar    1  UNL1       -0.1470
     12 C           2.4010    0.5188   -1.2286 C.ar    1  UNL1       -0.2291
     13 H           1.6123   -0.5064    1.9019 H       1  UNL1        0.1740
     14 H           4.0632   -0.6812    2.0388 H       1  UNL1        0.1471
     15 H           5.4608   -0.0994    0.0815 H       1  UNL1        0.1485
     16 H           4.3869    0.6709   -2.0098 H       1  UNL1        0.1468
     17 H           1.9297    0.8621   -2.1402 H       1  UNL1        0.1520
     18 N          -0.5840    2.5513    0.4816 N.am    1  UNL1       -0.0839
     19 C          -0.9810    3.9221    0.2250 C.3     1  UNL1       -0.2805
     20 C          -0.4946    2.1828    1.8802 C.3     1  UNL1       -0.2865
     21 H          -0.9468    4.1154   -0.8421 H       1  UNL1        0.1536
     22 H          -1.9948    4.0932    0.5933 H       1  UNL1        0.1461
     23 H          -0.3019    4.6029    0.7415 H       1  UNL1        0.1434
     24 H          -0.2744    1.1259    1.9919 H       1  UNL1        0.1624
     25 H           0.2902    2.7614    2.3717 H       1  UNL1        0.1524
     26 H          -1.4448    2.3915    2.3753 H       1  UNL1        0.1523
@<TRIPOS>BOND
     1    17    12    1
     2    16    11    1
     3     3     2    2
     4    12    11   ar
     5    12     7   ar
     6    11    10   ar
     7    21    19    1
     8     2     1    1
     9     2    18   am
    10     1     7    1
    11     1     4    2
    12     6     4    1
    13     7     8   ar
    14     4     5    1
    15    10    15    1
    16    10     9   ar
    17    19    18    1
    18    19    22    1
    19    19    23    1
    20    18    20    1
    21     8     9   ar
    22     8    13    1
    23     9    14    1
    24    20    24    1
    25    20    25    1
    26    20    26    1
