@<TRIPOS>MOLECULE
GS-735-0.out
 20 20 0 0 0
SMALL
MULLIKEN_CHARGES
****
Gaussian 16 # wB97XD def2tzvp, opt=(calcfc, maxcycles=70, maxstep=10), freq=norama
@<TRIPOS>ATOM
      1 C          -0.9397    1.2689    0.2097 C.2     1  UNL1       -0.2473
      2 C           0.5061    1.3087   -0.1862 C.2     1  UNL1        0.4421
      3 O           0.8740    2.1150   -1.0204 O.2     1  UNL1       -0.4520
      4 C          -1.7714    0.2550    0.0381 C.2     1  UNL1       -0.0162
      5 BR         -3.5984    0.4046    0.4808 Br      1  UNL1       -0.0077
      6 BR         -1.2768   -1.4124   -0.6877 Br      1  UNL1        0.0003
      7 H          -1.3301    2.2079    0.5827 H       1  UNL1        0.1984
      8 N           1.3032    0.4391    0.4757 N.am    1  UNL1       -0.2828
      9 C           2.6841    0.2106    0.3302 C.ar    1  UNL1        0.3127
     10 C           3.2623   -0.7220    1.1916 C.ar    1  UNL1       -0.2993
     11 C           4.6125   -1.0080    1.1060 C.ar    1  UNL1       -0.0967
     12 C           5.4057   -0.3694    0.1621 C.ar    1  UNL1       -0.1831
     13 C           4.8281    0.5556   -0.6925 C.ar    1  UNL1       -0.1068
     14 C           3.4743    0.8534   -0.6194 C.ar    1  UNL1       -0.2933
     15 H           0.8463   -0.1298    1.1704 H       1  UNL1        0.2796
     16 H           2.6494   -1.2241    1.9308 H       1  UNL1        0.1477
     17 H           5.0454   -1.7342    1.7819 H       1  UNL1        0.1481
     18 H           6.4624   -0.5923    0.0950 H       1  UNL1        0.1451
     19 H           5.4350    1.0598   -1.4340 H       1  UNL1        0.1464
     20 H           3.0347    1.5748   -1.2884 H       1  UNL1        0.1648
@<TRIPOS>BOND
     1    19    13    1
     2    20    14    1
     3     3     2    2
     4    13    14   ar
     5    13    12   ar
     6     6     4    1
     7    14     9   ar
     8     2     1    1
     9     2     8   am
    10     4     1    2
    11     4     5    1
    12    18    12    1
    13    12    11   ar
    14     1     7    1
    15     9     8    1
    16     9    10   ar
    17     8    15    1
    18    11    10   ar
    19    11    17    1
    20    10    16    1
