@<TRIPOS>MOLECULE
GS-783-1.out
 23 23 0 0 0
SMALL
MULLIKEN_CHARGES
****
Gaussian 16 # wB97XD def2tzvp, opt=(calcfc, maxcycles=70, maxstep=1), freq=noraman
@<TRIPOS>ATOM
      1 C           1.0809    0.8963   -0.1627 C.2     1  UNL1       -0.1011
      2 C          -0.3565    0.9525    0.3047 C.2     1  UNL1        0.4205
      3 O          -0.6750    1.6969    1.2122 O.2     1  UNL1       -0.4479
      4 C           1.8458   -0.1315    0.1787 C.2     1  UNL1       -0.0194
      5 BR          3.6724   -0.2814   -0.2767 Br      1  UNL1       -0.0235
      6 CL          1.2642   -1.4634    1.1177 Cl      1  UNL1       -0.0462
      7 C           1.5174    2.1025   -0.9329 C.3     1  UNL1       -0.3240
      8 H           1.3414    2.9966   -0.3321 H       1  UNL1        0.1554
      9 H           2.5692    2.0589   -1.2017 H       1  UNL1        0.1414
     10 H           0.9241    2.1968   -1.8450 H       1  UNL1        0.1523
     11 N          -1.1982    0.1698   -0.4088 N.am    1  UNL1       -0.2705
     12 C          -2.5881   -0.0026   -0.2694 C.ar    1  UNL1        0.3078
     13 C          -3.2097   -0.8672   -1.1703 C.ar    1  UNL1       -0.2961
     14 C          -4.5723   -1.0908   -1.0962 C.ar    1  UNL1       -0.0988
     15 C          -5.3349   -0.4564   -0.1247 C.ar    1  UNL1       -0.1823
     16 C          -4.7143    0.4017    0.7687 C.ar    1  UNL1       -0.1099
     17 C          -3.3474    0.6361    0.7076 C.ar    1  UNL1       -0.2897
     18 H          -0.7672   -0.3817   -1.1335 H       1  UNL1        0.2802
     19 H          -2.6209   -1.3650   -1.9318 H       1  UNL1        0.1476
     20 H          -5.0391   -1.7650   -1.8029 H       1  UNL1        0.1479
     21 H          -6.4013   -0.6306   -0.0665 H       1  UNL1        0.1449
     22 H          -5.2971    0.9024    1.5317 H       1  UNL1        0.1462
     23 H          -2.8739    1.3052    1.4072 H       1  UNL1        0.1651
@<TRIPOS>BOND
     1    19    13    1
     2    10     7    1
     3    20    14    1
     4     9     7    1
     5    13    14   ar
     6    13    12   ar
     7    18    11    1
     8    14    15   ar
     9     7     8    1
    10     7     1    1
    11    11    12    1
    12    11     2   am
    13     5     4    1
    14    12    17   ar
    15     1     4    2
    16     1     2    1
    17    15    21    1
    18    15    16   ar
    19     4     6    1
    20     2     3    2
    21    17    16   ar
    22    17    23    1
    23    16    22    1
