@<TRIPOS>MOLECULE
GS-717-1.out
 16 15 0 0 0
SMALL
MULLIKEN_CHARGES
****
Gaussian 16 # wB97XD def2tzvp, opt=(calcfc, maxcycles=70, maxstep=1), freq=noraman
@<TRIPOS>ATOM
      1 C          -0.3947   -0.1487    0.1293 C.2     1  UNL1       -0.0727
      2 C          -1.8142    0.3636    0.2229 C.2     1  UNL1        0.3925
      3 O          -2.0885    1.3635    0.8705 O.2     1  UNL1       -0.4752
      4 C           0.6522    0.6598   -0.0294 C.2     1  UNL1        0.0336
      5 BR          2.4101   -0.0461   -0.0937 Br      1  UNL1       -0.0519
      6 C           0.6098    2.1431   -0.1920 C.3     1  UNL1       -0.3539
      7 H          -0.4124    2.5043   -0.2464 H       1  UNL1        0.1515
      8 H           1.1048    2.6238    0.6537 H       1  UNL1        0.1543
      9 H           1.1488    2.4266   -1.0967 H       1  UNL1        0.1507
     10 CL         -0.2341   -1.8735    0.2470 Cl      1  UNL1       -0.0759
     11 N          -2.7309   -0.3443   -0.4474 N.am    1  UNL1       -0.3048
     12 C          -4.1306    0.0216   -0.4321 C.3     1  UNL1       -0.2523
     13 H          -2.4470   -1.1605   -0.9596 H       1  UNL1        0.2725
     14 H          -4.6838   -0.7040   -1.0222 H       1  UNL1        0.1507
     15 H          -4.5185    0.0226    0.5873 H       1  UNL1        0.1404
     16 H          -4.2772    1.0147   -0.8588 H       1  UNL1        0.1403
@<TRIPOS>BOND
     1     9     6    1
     2    14    12    1
     3    13    11    1
     4    16    12    1
     5    11    12    1
     6    11     2   am
     7    12    15    1
     8     7     6    1
     9     6     4    1
    10     6     8    1
    11     5     4    1
    12     4     1    2
    13     1     2    1
    14     1    10    1
    15     2     3    2
