@<TRIPOS>MOLECULE
GS-718-0.out
 19 18 0 0 0
SMALL
MULLIKEN_CHARGES
****
Gaussian 16 # wB97XD def2tzvp, opt=(calcfc, maxcycles=70, maxstep=10), freq=norama
@<TRIPOS>ATOM
      1 C           0.1970    0.4340   -0.1811 C.2     1  UNL1       -0.0095
      2 C           1.6491    0.2672   -0.5709 C.2     1  UNL1        0.2838
      3 O           2.0043    0.6578   -1.6749 O.2     1  UNL1       -0.4698
      4 C          -0.6897   -0.5472   -0.2795 C.2     1  UNL1       -0.0374
      5 BR         -2.5234   -0.2513    0.0885 Br      1  UNL1       -0.0571
      6 C          -0.3572   -1.9505   -0.6674 C.3     1  UNL1       -0.3645
      7 H           0.7038   -2.0578   -0.8888 H       1  UNL1        0.1559
      8 H          -0.6149   -2.6357    0.1417 H       1  UNL1        0.1575
      9 H          -0.9270   -2.2441   -1.5498 H       1  UNL1        0.1617
     10 CL         -0.1848    2.0561    0.2764 Cl      1  UNL1       -0.0662
     11 N           2.4665   -0.2982    0.3311 N.am    1  UNL1       -0.1070
     12 C           3.8620   -0.5175    0.0004 C.3     1  UNL1       -0.2774
     13 C           2.0737   -0.7174    1.6632 C.3     1  UNL1       -0.2966
     14 H           4.0301   -0.2746   -1.0436 H       1  UNL1        0.1530
     15 H           4.4997    0.1098    0.6266 H       1  UNL1        0.1494
     16 H           4.1172   -1.5636    0.1784 H       1  UNL1        0.1441
     17 H           1.0646   -0.3920    1.8947 H       1  UNL1        0.1724
     18 H           2.1238   -1.8052    1.7472 H       1  UNL1        0.1548
     19 H           2.7565   -0.2802    2.3933 H       1  UNL1        0.1531
@<TRIPOS>BOND
     1     3     2    2
     2     9     6    1
     3    14    12    1
     4     7     6    1
     5     6     4    1
     6     6     8    1
     7     2     1    1
     8     2    11   am
     9     4     1    2
    10     4     5    1
    11     1    10    1
    12    12    16    1
    13    12    11    1
    14    12    15    1
    15    11    13    1
    16    13    18    1
    17    13    17    1
    18    13    19    1
