@<TRIPOS>MOLECULE
GS-719-0.out
 23 23 0 0 0
SMALL
MULLIKEN_CHARGES
****
Gaussian 16 # wB97XD def2tzvp, opt=(calcfc, maxcycles=70, maxstep=10), freq=norama
@<TRIPOS>ATOM
      1 C           1.0182   -0.0940   -0.2480 C.2     1  UNL1       -0.0991
      2 C          -0.3786    0.4712   -0.3780 C.2     1  UNL1        0.4535
      3 O          -0.5687    1.5592   -0.8874 O.2     1  UNL1       -0.4536
      4 C           2.0545    0.6495    0.1379 C.2     1  UNL1        0.0313
      5 BR          3.7914   -0.0998    0.2232 Br      1  UNL1       -0.0448
      6 C           2.0112    2.0827    0.5530 C.3     1  UNL1       -0.3589
      7 H           0.9915    2.4509    0.6060 H       1  UNL1        0.1521
      8 H           2.4908    2.1947    1.5258 H       1  UNL1        0.1528
      9 H           2.5649    2.6927   -0.1630 H       1  UNL1        0.1570
     10 CL          1.1687   -1.7747   -0.6535 Cl      1  UNL1       -0.0708
     11 N          -1.3474   -0.3328    0.1184 N.am    1  UNL1       -0.2693
     12 C          -2.7414   -0.1419    0.1196 C.ar    1  UNL1        0.3074
     13 C          -3.5197   -1.2062    0.5761 C.ar    1  UNL1       -0.2956
     14 C          -4.8974   -1.0976    0.6170 C.ar    1  UNL1       -0.1006
     15 C          -5.5208    0.0718    0.2021 C.ar    1  UNL1       -0.1810
     16 C          -4.7456    1.1273   -0.2500 C.ar    1  UNL1       -0.1115
     17 C          -3.3611    1.0346   -0.2945 C.ar    1  UNL1       -0.2843
     18 H          -1.0392   -1.2118    0.5024 H       1  UNL1        0.2623
     19 H          -3.0405   -2.1232    0.8988 H       1  UNL1        0.1479
     20 H          -5.4858   -1.9331    0.9738 H       1  UNL1        0.1480
     21 H          -6.5990    0.1574    0.2327 H       1  UNL1        0.1450
     22 H          -5.2185    2.0456   -0.5745 H       1  UNL1        0.1461
     23 H          -2.7683    1.8628   -0.6456 H       1  UNL1        0.1660
@<TRIPOS>BOND
     1     3     2    2
     2    10     1    1
     3    23    17    1
     4    22    16    1
     5     2     1    1
     6     2    11   am
     7    17    16   ar
     8    17    12   ar
     9    16    15   ar
    10     1     4    2
    11     9     6    1
    12    11    12    1
    13    11    18    1
    14    12    13   ar
    15     4     5    1
    16     4     6    1
    17    15    21    1
    18    15    14   ar
    19     6     7    1
    20     6     8    1
    21    13    14   ar
    22    13    19    1
    23    14    20    1
