@<TRIPOS>MOLECULE
GS-748-0.out
 12 11 0 0 0
SMALL
MULLIKEN_CHARGES
****
Gaussian 16 # wB97XD def2tzvp, opt=(calcfc, maxcycles=70, maxstep=10), freq=norama
@<TRIPOS>ATOM
      1 C          -0.4534    0.4502    0.1082 C.2     1  UNL1       -0.0197
      2 C          -1.8572   -0.0531    0.3142 C.2     1  UNL1        0.4194
      3 O          -2.3745   -0.1213    1.3957 O.2     1  UNL1       -0.3750
      4 C           0.5978   -0.3536    0.0277 C.2     1  UNL1       -0.0934
      5 BR          2.3647    0.2316   -0.1668 Br      1  UNL1        0.0228
      6 BR          0.3731   -2.2216    0.1187 Br      1  UNL1        0.0191
      7 BR         -0.3489    2.3231    0.0396 Br      1  UNL1        0.0216
      8 O          -2.4245   -0.3659   -0.8342 O.3     1  UNL1       -0.2482
      9 C          -3.7742   -0.8519   -0.7670 C.3     1  UNL1       -0.2024
     10 H          -4.4206   -0.0986   -0.3201 H       1  UNL1        0.1503
     11 H          -4.0642   -1.0446   -1.7945 H       1  UNL1        0.1559
     12 H          -3.8101   -1.7681   -0.1800 H       1  UNL1        0.1497
@<TRIPOS>BOND
     1    11     9    1
     2     8     9    1
     3     8     2    1
     4     9    10    1
     5     9    12    1
     6     5     4    1
     7     4     1    2
     8     4     6    1
     9     7     1    1
    10     1     2    1
    11     2     3    2
