@<TRIPOS>MOLECULE
GS-722-0.out
 21 21 0 0 0
SMALL
MULLIKEN_CHARGES
****
Gaussian 16 # wB97XD def2tzvp, opt=(calcfc, maxcycles=70, maxstep=10), freq=norama
@<TRIPOS>ATOM
      1 C          -0.1313    0.6499   -0.0357 C.2     1  UNL1        0.0008
      2 C           0.1522    2.1409   -0.0479 C.2     1  UNL1        0.2174
      3 O           0.2790    2.7233   -1.0956 O.2     1  UNL1       -0.3484
      4 C           0.8536   -0.2345   -0.0387 C.2     1  UNL1       -0.0742
      5 BR          0.5809   -2.0997   -0.0970 Br      1  UNL1       -0.0079
      6 BR          2.6708    0.2822   -0.0038 Br      1  UNL1       -0.0113
      7 C          -1.5773    0.3114   -0.0163 C.ar    1  UNL1        0.1850
      8 C          -2.1532   -0.2651    1.1123 C.ar    1  UNL1       -0.2334
      9 C          -3.5096   -0.5479    1.1325 C.ar    1  UNL1       -0.1253
     10 C          -4.2987   -0.2551    0.0291 C.ar    1  UNL1       -0.1320
     11 C          -3.7292    0.3279   -1.0939 C.ar    1  UNL1       -0.1478
     12 C          -2.3738    0.6179   -1.1160 C.ar    1  UNL1       -0.2044
     13 H          -1.5363   -0.4906    1.9730 H       1  UNL1        0.1642
     14 H          -3.9507   -0.9969    2.0131 H       1  UNL1        0.1486
     15 H          -5.3578   -0.4781    0.0458 H       1  UNL1        0.1499
     16 H          -4.3414    0.5597   -1.9559 H       1  UNL1        0.1483
     17 H          -1.9289    1.0774   -1.9896 H       1  UNL1        0.1518
     18 C           0.1846    2.8053    1.2927 C.3     1  UNL1       -0.3540
     19 H           0.9892    2.3720    1.8911 H       1  UNL1        0.1591
     20 H           0.3303    3.8775    1.1860 H       1  UNL1        0.1475
     21 H          -0.7506    2.6012    1.8190 H       1  UNL1        0.1661
@<TRIPOS>BOND
     1    17    12    1
     2    16    11    1
     3    12    11   ar
     4    12     7   ar
     5     3     2    2
     6    11    10   ar
     7     5     4    1
     8     2     1    1
     9     2    18    1
    10     4     1    2
    11     4     6    1
    12     1     7    1
    13     7     8   ar
    14    10    15    1
    15    10     9   ar
    16     8     9   ar
    17     8    13    1
    18     9    14    1
    19    20    18    1
    20    18    21    1
    21    18    19    1
