@<TRIPOS>MOLECULE
GS-757-0.out
 13 12 0 0 0
SMALL
MULLIKEN_CHARGES
****
Gaussian 16 # wB97XD def2tzvp, opt=(calcfc, maxcycles=70, maxstep=10), freq=norama
@<TRIPOS>ATOM
      1 C           0.4230   -0.8336    0.1024 C.2     1  UNL1        0.0233
      2 C           1.8817   -0.4921    0.3255 C.2     1  UNL1        0.3664
      3 O           2.3662   -0.5649    1.4415 O.2     1  UNL1       -0.4510
      4 C          -0.5464    0.0699    0.0232 C.2     1  UNL1       -0.1113
      5 BR         -2.3601   -0.3603   -0.1666 Br      1  UNL1        0.0132
      6 BR         -0.1608    1.9097    0.1270 Br      1  UNL1        0.0141
      7 CL          0.1234   -2.5280    0.0505 Cl      1  UNL1       -0.0368
      8 N           2.5547   -0.1578   -0.7768 N.am    1  UNL1       -0.2994
      9 C           3.9591    0.1944   -0.7372 C.3     1  UNL1       -0.2519
     10 H           2.0607   -0.1085   -1.6510 H       1  UNL1        0.2904
     11 H           4.3049    0.3510   -1.7550 H       1  UNL1        0.1539
     12 H           4.1139    1.1080   -0.1613 H       1  UNL1        0.1443
     13 H           4.5390   -0.6080   -0.2816 H       1  UNL1        0.1446
@<TRIPOS>BOND
     1    11     9    1
     2    10     8    1
     3     8     9    1
     4     8     2   am
     5     9    13    1
     6     9    12    1
     7     5     4    1
     8     4     1    2
     9     4     6    1
    10     7     1    1
    11     1     2    1
    12     2     3    2
