@<TRIPOS>MOLECULE
GS-727-1.out
 30 31 0 0 0
SMALL
MULLIKEN_CHARGES
****
Gaussian 16 # wB97XD def2tzvp, opt=(calcfc, maxcycles=70, maxstep=1), freq=noraman
@<TRIPOS>ATOM
      1 C          -0.6658    0.1923   -0.2587 C.2     1  UNL1       -0.0742
      2 C           0.7765    0.2771   -0.7143 C.2     1  UNL1        0.3753
      3 O           1.0442    0.4072   -1.8926 O.2     1  UNL1       -0.4400
      4 C          -1.2468   -0.9846   -0.0702 C.2     1  UNL1       -0.0610
      5 BR         -3.0703   -1.1806    0.3646 Br      1  UNL1       -0.0029
      6 BR         -0.3189   -2.6181   -0.2611 Br      1  UNL1       -0.0054
      7 C          -1.3464    1.5040   -0.1067 C.ar    1  UNL1        0.1954
      8 C          -1.7323    1.9547    1.1525 C.ar    1  UNL1       -0.2295
      9 C          -2.3406    3.1921    1.2919 C.ar    1  UNL1       -0.1401
     10 C          -2.5653    3.9871    0.1770 C.ar    1  UNL1       -0.1263
     11 C          -2.1750    3.5437   -1.0785 C.ar    1  UNL1       -0.1476
     12 C          -1.5621    2.3085   -1.2221 C.ar    1  UNL1       -0.2201
     13 H          -1.5552    1.3342    2.0221 H       1  UNL1        0.1634
     14 H          -2.6383    3.5356    2.2742 H       1  UNL1        0.1477
     15 H          -3.0422    4.9526    0.2870 H       1  UNL1        0.1493
     16 H          -2.3477    4.1607   -1.9508 H       1  UNL1        0.1475
     17 H          -1.2525    1.9621   -2.1996 H       1  UNL1        0.1512
     18 N           1.6642    0.2500    0.3049 N.am    1  UNL1       -0.2483
     19 C           3.0697    0.3237    0.2631 C.ar    1  UNL1        0.3074
     20 C           3.7459    0.1548    1.4710 C.ar    1  UNL1       -0.2986
     21 C           5.1265    0.2197    1.5123 C.ar    1  UNL1       -0.0988
     22 C           5.8521    0.4524    0.3515 C.ar    1  UNL1       -0.1807
     23 C           5.1768    0.6199   -0.8467 C.ar    1  UNL1       -0.1121
     24 C           3.7912    0.5588   -0.9042 C.ar    1  UNL1       -0.2851
     25 H           1.2674    0.1222    1.2223 H       1  UNL1        0.2809
     26 H           3.1854   -0.0292    2.3800 H       1  UNL1        0.1482
     27 H           5.6366    0.0865    2.4577 H       1  UNL1        0.1481
     28 H           6.9325    0.5025    0.3830 H       1  UNL1        0.1453
     29 H           5.7306    0.8030   -1.7589 H       1  UNL1        0.1464
     30 H           3.2753    0.6911   -1.8410 H       1  UNL1        0.1647
@<TRIPOS>BOND
     1    17    12    1
     2    16    11    1
     3     3     2    2
     4    30    24    1
     5    29    23    1
     6    12    11   ar
     7    12     7   ar
     8    11    10   ar
     9    24    23   ar
    10    24    19   ar
    11    23    22   ar
    12     2     1    1
    13     2    18   am
    14     6     4    1
    15     1     7    1
    16     1     4    2
    17     7     8   ar
    18     4     5    1
    19    10    15    1
    20    10     9   ar
    21    19    18    1
    22    19    20   ar
    23    18    25    1
    24    22    28    1
    25    22    21   ar
    26     8     9   ar
    27     8    13    1
    28     9    14    1
    29    20    21   ar
    30    20    26    1
    31    21    27    1
