@<TRIPOS>MOLECULE
GS-749-0.out
 13 12 0 0 0
SMALL
MULLIKEN_CHARGES
****
Gaussian 16 # wB97XD def2tzvp, opt=(calcfc, maxcycles=70, maxstep=10), freq=norama
@<TRIPOS>ATOM
      1 C           0.4458   -0.4600    0.1008 C.2     1  UNL1       -0.0592
      2 C           1.8698    0.0006    0.3251 C.2     1  UNL1        0.3787
      3 O           2.3447    0.0173    1.4476 O.2     1  UNL1       -0.4507
      4 C          -0.5892    0.3658    0.0219 C.2     1  UNL1       -0.0866
      5 BR         -2.3719   -0.1784   -0.1740 Br      1  UNL1        0.0154
      6 BR         -0.3369    2.2315    0.1263 Br      1  UNL1        0.0122
      7 BR          0.2783   -2.3318    0.0363 Br      1  UNL1        0.0091
      8 N           2.5298    0.3389   -0.7844 N.am    1  UNL1       -0.2973
      9 C           3.9039    0.7948   -0.7473 C.3     1  UNL1       -0.2531
     10 H           2.0476    0.3021   -1.6657 H       1  UNL1        0.2897
     11 H           4.5437    0.0423   -0.2860 H       1  UNL1        0.1442
     12 H           4.2373    0.9704   -1.7663 H       1  UNL1        0.1536
     13 H           3.9885    1.7216   -0.1782 H       1  UNL1        0.1441
@<TRIPOS>BOND
     1    12     9    1
     2    10     8    1
     3     8     9    1
     4     8     2   am
     5     9    11    1
     6     9    13    1
     7     5     4    1
     8     4     1    2
     9     4     6    1
    10     7     1    1
    11     1     2    1
    12     2     3    2
