@<TRIPOS>MOLECULE
GS-752-0.out
 18 18 0 0 0
SMALL
MULLIKEN_CHARGES
****
Gaussian 16 # wB97XD def2tzvp, opt=(calcfc, maxcycles=70, maxstep=10), freq=norama
@<TRIPOS>ATOM
      1 C           0.3104    0.5505    0.4197 C.2     1  UNL1       -0.0332
      2 C          -1.0350    0.3490    1.0936 C.2     1  UNL1        0.3730
      3 O          -1.0899    0.4028    2.2984 O.2     1  UNL1       -0.3485
      4 C           1.1311   -0.4393    0.1006 C.2     1  UNL1       -0.0922
      5 BR          2.8265   -0.2167   -0.6638 Br      1  UNL1        0.0188
      6 BR          0.6163   -2.2270    0.4061 Br      1  UNL1        0.0138
      7 BR          0.7136    2.3653    0.1460 Br      1  UNL1        0.0168
      8 C          -2.2167    0.1354    0.2275 C.ar    1  UNL1        0.0354
      9 C          -3.4651   -0.0249    0.8290 C.ar    1  UNL1       -0.2101
     10 C          -4.5871   -0.2301    0.0490 C.ar    1  UNL1       -0.1208
     11 C          -4.4705   -0.2752   -1.3357 C.ar    1  UNL1       -0.1147
     12 C          -3.2320   -0.1151   -1.9396 C.ar    1  UNL1       -0.1520
     13 C          -2.1053    0.0895   -1.1607 C.ar    1  UNL1       -0.1796
     14 H          -3.5402    0.0124    1.9075 H       1  UNL1        0.1532
     15 H          -5.5550   -0.3556    0.5160 H       1  UNL1        0.1533
     16 H          -5.3504   -0.4361   -1.9454 H       1  UNL1        0.1555
     17 H          -3.1432   -0.1505   -3.0172 H       1  UNL1        0.1534
     18 H          -1.1407    0.2114   -1.6365 H       1  UNL1        0.1778
@<TRIPOS>BOND
     1    17    12    1
     2    16    11    1
     3    12    11   ar
     4    12    13   ar
     5    18    13    1
     6    11    10   ar
     7    13     8   ar
     8     5     4    1
     9    10    15    1
    10    10     9   ar
    11     4     6    1
    12     4     1    2
    13     7     1    1
    14     8     9   ar
    15     8     2    1
    16     1     2    1
    17     9    14    1
    18     2     3    2
