@<TRIPOS>MOLECULE
GS-733-1.out
 13 12 0 0 0
SMALL
MULLIKEN_CHARGES
****
Gaussian 16 # wB97XD def2tzvp, opt=(calcfc, maxcycles=70, maxstep=1), freq=noraman
@<TRIPOS>ATOM
      1 C           0.4286   -1.1976    0.0283 C.2     1  UNL1       -0.2192
      2 C           1.8961   -0.9782    0.2448 C.2     1  UNL1        0.3912
      3 O           2.4328   -1.4214    1.2504 O.2     1  UNL1       -0.4769
      4 C          -0.5047   -0.2621    0.0072 C.2     1  UNL1       -0.0225
      5 BR         -2.3320   -0.7033   -0.1621 Br      1  UNL1       -0.0148
      6 BR         -0.1598    1.5833    0.1802 Br      1  UNL1       -0.0043
      7 H           0.1275   -2.2366   -0.0289 H       1  UNL1        0.1966
      8 N           2.5505   -0.3292   -0.7235 N.am    1  UNL1       -0.3186
      9 C           3.9688   -0.0525   -0.6391 C.3     1  UNL1       -0.2500
     10 H           2.0359   -0.0073   -1.5242 H       1  UNL1        0.2855
     11 H           4.2770    0.4564   -1.5483 H       1  UNL1        0.1512
     12 H           4.1894    0.5844    0.2186 H       1  UNL1        0.1413
     13 H           4.5362   -0.9782   -0.5388 H       1  UNL1        0.1406
@<TRIPOS>BOND
     1    11     9    1
     2    10     8    1
     3     8     9    1
     4     8     2   am
     5     9    13    1
     6     9    12    1
     7     5     4    1
     8     7     1    1
     9     4     1    2
    10     4     6    1
    11     1     2    1
    12     2     3    2
