@<TRIPOS>MOLECULE
GS-710-0.out
 19 18 0 0 0
SMALL
MULLIKEN_CHARGES
****
Gaussian 16 # wb97xd def2tzvp opt=(calcfc, maxcycles=100, maxstep=10) freq=noraman
@<TRIPOS>ATOM
      1 C          -0.2250    0.0843   -0.2458 C.2     1  UNL1       -0.0866
      2 C          -1.6754   -0.1151   -0.6217 C.2     1  UNL1        0.2940
      3 O          -2.0174    0.1102   -1.7751 O.2     1  UNL1       -0.4697
      4 C           0.6515   -0.9102   -0.2432 C.2     1  UNL1       -0.0176
      5 BR          2.4915   -0.6195    0.1004 Br      1  UNL1       -0.0539
      6 C           0.2994   -2.3411   -0.4936 C.3     1  UNL1       -0.3656
      7 H          -0.7638   -2.4564   -0.6989 H       1  UNL1        0.1560
      8 H           0.8616   -2.7245   -1.3460 H       1  UNL1        0.1616
      9 H           0.5539   -2.9479    0.3768 H       1  UNL1        0.1576
     10 BR          0.1910    1.8953    0.0789 Br      1  UNL1       -0.0240
     11 N          -2.5094   -0.5249    0.3473 N.am    1  UNL1       -0.1029
     12 C          -3.9094   -0.7532    0.0439 C.3     1  UNL1       -0.2775
     13 C          -2.1285   -0.7659    1.7259 C.3     1  UNL1       -0.2934
     14 H          -4.0735   -0.6322   -1.0217 H       1  UNL1        0.1530
     15 H          -4.1877   -1.7649    0.3442 H       1  UNL1        0.1439
     16 H          -4.5319   -0.0422    0.5911 H       1  UNL1        0.1483
     17 H          -1.1031   -0.4606    1.9078 H       1  UNL1        0.1712
     18 H          -2.7847   -0.1972    2.3866 H       1  UNL1        0.1519
     19 H          -2.2286   -1.8271    1.9640 H       1  UNL1        0.1537
@<TRIPOS>BOND
     1     3     2    2
     2     8     6    1
     3    14    12    1
     4     7     6    1
     5     2     1    1
     6     2    11   am
     7     6     4    1
     8     6     9    1
     9     1     4    2
    10     1    10    1
    11     4     5    1
    12    12    15    1
    13    12    11    1
    14    12    16    1
    15    11    13    1
    16    13    17    1
    17    13    19    1
    18    13    18    1
