@<TRIPOS>MOLECULE
GS-750-0.out
 16 15 0 0 0
SMALL
MULLIKEN_CHARGES
****
Gaussian 16 # wb97xd def2tzvp opt=(calcfc, maxcycles=100, maxstep=10) freq=noraman
@<TRIPOS>ATOM
      1 C          -0.3007    0.4854   -0.2071 C.2     1  UNL1       -0.0720
      2 C          -1.7147    0.0854   -0.5707 C.2     1  UNL1        0.3262
      3 O          -2.0218    0.0849   -1.7540 O.2     1  UNL1       -0.4630
      4 C           0.6975   -0.3781   -0.0816 C.2     1  UNL1       -0.0862
      5 BR          2.4861    0.0921    0.2180 Br      1  UNL1        0.0148
      6 BR          0.3662   -2.2306   -0.1920 Br      1  UNL1        0.0104
      7 BR         -0.0676    2.3490   -0.1036 Br      1  UNL1        0.0103
      8 N          -2.5437   -0.2142    0.4380 N.am    1  UNL1       -0.0952
      9 C          -3.9105   -0.6072    0.1522 C.3     1  UNL1       -0.2760
     10 C          -2.1783   -0.2145    1.8413 C.3     1  UNL1       -0.2984
     11 H          -4.0738   -0.5972   -0.9203 H       1  UNL1        0.1545
     12 H          -4.0929   -1.6113    0.5399 H       1  UNL1        0.1457
     13 H          -4.6028    0.0858    0.6336 H       1  UNL1        0.1478
     14 H          -1.1671    0.1536    1.9845 H       1  UNL1        0.1723
     15 H          -2.8645    0.4275    2.3956 H       1  UNL1        0.1533
     16 H          -2.2438   -1.2274    2.2436 H       1  UNL1        0.1556
@<TRIPOS>BOND
     1     3     2    2
     2    11     9    1
     3     2     1    1
     4     2     8   am
     5     1     7    1
     6     1     4    2
     7     6     4    1
     8     4     5    1
     9     9     8    1
    10     9    12    1
    11     9    13    1
    12     8    10    1
    13    10    14    1
    14    10    16    1
    15    10    15    1
