@<TRIPOS>MOLECULE
GS-731-0.out
 10 9 0 0 0
SMALL
MULLIKEN_CHARGES
****
Gaussian 16 # wB97XD def2tzvp, opt=(calcfc, maxcycles=70, maxstep=10), freq=norama
@<TRIPOS>ATOM
      1 C          -0.7387   -1.1954    0.0840 C.2     1  UNL1       -0.1901
      2 C          -2.2207   -0.9875   -0.0238 C.2     1  UNL1        0.3446
      3 O          -2.8263   -1.4689   -0.9671 O.2     1  UNL1       -0.4540
      4 C           0.1928   -0.2592    0.0288 C.2     1  UNL1       -0.0275
      5 BR          2.0268   -0.7033    0.0580 Br      1  UNL1       -0.0131
      6 BR         -0.1601    1.5854   -0.1268 Br      1  UNL1       -0.0015
      7 H          -0.4322   -2.2336    0.1224 H       1  UNL1        0.1987
      8 N          -2.8034   -0.3075    0.9721 N.am    1  UNL1       -0.4464
      9 H          -3.7958   -0.1442    0.9449 H       1  UNL1        0.2882
     10 H          -2.2737    0.0630    1.7403 H       1  UNL1        0.3011
@<TRIPOS>BOND
     1     3     2    2
     2     6     4    1
     3     2     1    1
     4     2     8   am
     5     4     5    1
     6     4     1    2
     7     1     7    1
     8     9     8    1
     9     8    10    1
