@<TRIPOS>MOLECULE
GS-782-0.out
 19 18 0 0 0
SMALL
MULLIKEN_CHARGES
****
Gaussian 16 # wB97XD def2tzvp, opt=(calcfc, maxcycles=70, maxstep=10), freq=norama
@<TRIPOS>ATOM
      1 C          -0.2205    0.7521   -0.2242 C.2     1  UNL1       -0.0986
      2 C          -1.6413    0.3886   -0.5947 C.2     1  UNL1        0.3226
      3 O          -1.9691    0.4760   -1.7722 O.2     1  UNL1       -0.4839
      4 C           0.7014   -0.1964   -0.1542 C.2     1  UNL1       -0.0245
      5 BR          2.5353    0.1267    0.1615 Br      1  UNL1       -0.0307
      6 CL          0.3197   -1.8740   -0.3419 Cl      1  UNL1       -0.0538
      7 C           0.0142    2.2214   -0.0715 C.3     1  UNL1       -0.3156
      8 H          -0.2977    2.7349   -0.9830 H       1  UNL1        0.1540
      9 H          -0.5951    2.6106    0.7477 H       1  UNL1        0.1532
     10 H           1.0568    2.4547    0.1266 H       1  UNL1        0.1419
     11 N          -2.4777    0.0467    0.3979 N.am    1  UNL1       -0.1008
     12 C          -3.8559   -0.2914    0.1016 C.3     1  UNL1       -0.2772
     13 C          -2.0978   -0.0598    1.7924 C.3     1  UNL1       -0.2961
     14 H          -4.0354   -0.1753   -0.9622 H       1  UNL1        0.1519
     15 H          -4.0562   -1.3245    0.3938 H       1  UNL1        0.1426
     16 H          -4.5269    0.3652    0.6588 H       1  UNL1        0.1438
     17 H          -1.0738    0.2680    1.9432 H       1  UNL1        0.1714
     18 H          -2.7578    0.5618    2.4002 H       1  UNL1        0.1498
     19 H          -2.1871   -1.0952    2.1288 H       1  UNL1        0.1500
@<TRIPOS>BOND
     1     3     2    2
     2     8     7    1
     3    14    12    1
     4     2     1    1
     5     2    11   am
     6     6     4    1
     7     1     4    2
     8     1     7    1
     9     4     5    1
    10     7    10    1
    11     7     9    1
    12    12    15    1
    13    12    11    1
    14    12    16    1
    15    11    13    1
    16    13    17    1
    17    13    19    1
    18    13    18    1
