@<TRIPOS>MOLECULE
GS-845-0.out
 23 23 0 0 0
SMALL
MULLIKEN_CHARGES
****
Gaussian 16 # wB97XD def2tzvp, opt=(calcfc, maxcycles=70, maxstep=10), freq=norama
@<TRIPOS>ATOM
      1 C          -0.6078    0.6394   -0.0051 C.2     1  UNL1       -0.0843
      2 C          -1.9651   -0.0165    0.0039 C.2     1  UNL1        0.3729
      3 O          -3.0057    0.6309   -0.0096 O.2     1  UNL1       -0.5015
      4 C          -0.6026    1.9660   -0.0120 C.2     1  UNL1       -0.0244
      5 CL          0.8287    2.9211   -0.0263 Cl      1  UNL1       -0.0706
      6 H          -1.5174    2.5403   -0.0110 H       1  UNL1        0.1816
      7 C           0.6247   -0.1899   -0.0032 C.ar    1  UNL1        0.0251
      8 C           1.2436   -0.5275    1.1974 C.ar    1  UNL1       -0.1860
      9 C           2.3870   -1.3119    1.1991 C.ar    1  UNL1       -0.1461
     10 C           2.9199   -1.7680    0.0019 C.ar    1  UNL1       -0.1176
     11 C           2.3060   -1.4378   -1.1978 C.ar    1  UNL1       -0.1436
     12 C           1.1623   -0.6535   -1.2011 C.ar    1  UNL1       -0.1916
     13 H           0.8263   -0.1715    2.1313 H       1  UNL1        0.1478
     14 H           2.8621   -1.5668    2.1377 H       1  UNL1        0.1468
     15 H           3.8123   -2.3808    0.0038 H       1  UNL1        0.1490
     16 H           2.7179   -1.7907   -2.1346 H       1  UNL1        0.1470
     17 H           0.6820   -0.3960   -2.1371 H       1  UNL1        0.1476
     18 N          -1.9525   -1.3575    0.0295 N.am    1  UNL1       -0.2898
     19 C          -3.1729   -2.1319    0.0420 C.3     1  UNL1       -0.2655
     20 H          -1.0698   -1.8375    0.0412 H       1  UNL1        0.2776
     21 H          -2.9144   -3.1874    0.0559 H       1  UNL1        0.1487
     22 H          -3.7714   -1.9002    0.9242 H       1  UNL1        0.1385
     23 H          -3.7734   -1.9239   -0.8447 H       1  UNL1        0.1386
@<TRIPOS>BOND
     1    17    12    1
     2    16    11    1
     3    12    11   ar
     4    12     7   ar
     5    11    10   ar
     6    23    19    1
     7     5     4    1
     8     4     6    1
     9     4     1    2
    10     3     2    2
    11     1     7    1
    12     1     2    1
    13     7     8   ar
    14    10    15    1
    15    10     9   ar
    16     2    18   am
    17    18    20    1
    18    18    19    1
    19    19    21    1
    20    19    22    1
    21     8     9   ar
    22     8    13    1
    23     9    14    1
