@<TRIPOS>MOLECULE
GS-829-0.out
 23 23 0 0 0
SMALL
MULLIKEN_CHARGES
****
Gaussian 16 # wB97XD def2tzvp, opt=(calcfc, maxcycles=70, maxstep=10), freq=norama
@<TRIPOS>ATOM
      1 C           0.9477    0.0753    0.0371 C.2     1  UNL1       -0.0413
      2 C           0.5771    1.5362    0.1260 C.2     1  UNL1        0.2698
      3 O           0.9151    2.2154    1.0824 O.2     1  UNL1       -0.4552
      4 C           0.0453   -0.9041    0.0148 C.2     1  UNL1        0.0456
      5 CL          0.5194   -2.5685   -0.0993 Cl      1  UNL1       -0.0653
      6 C          -1.4153   -0.6742    0.1049 C.ar    1  UNL1        0.1087
      7 C          -2.2712   -1.1831   -0.8694 C.ar    1  UNL1       -0.2032
      8 C          -3.6310   -0.9339   -0.7973 C.ar    1  UNL1       -0.1390
      9 C          -4.1491   -0.1859    0.2519 C.ar    1  UNL1       -0.1317
     10 C          -3.3023    0.3097    1.2315 C.ar    1  UNL1       -0.1416
     11 C          -1.9394    0.0658    1.1612 C.ar    1  UNL1       -0.1877
     12 H          -1.8698   -1.7660   -1.6887 H       1  UNL1        0.1559
     13 H          -4.2887   -1.3237   -1.5633 H       1  UNL1        0.1497
     14 H          -5.2130    0.0053    0.3070 H       1  UNL1        0.1506
     15 H          -3.7015    0.8845    2.0570 H       1  UNL1        0.1504
     16 H          -1.2797    0.4471    1.9300 H       1  UNL1        0.1615
     17 BR          2.8063   -0.2184    0.0299 Br      1  UNL1       -0.0231
     18 N          -0.1136    2.0069   -0.9176 N.am    1  UNL1       -0.2729
     19 C          -0.6253    3.3599   -0.9454 C.3     1  UNL1       -0.2534
     20 H          -0.3712    1.3723   -1.6529 H       1  UNL1        0.2846
     21 H          -1.0754    3.5403   -1.9178 H       1  UNL1        0.1525
     22 H          -1.3786    3.5072   -0.1690 H       1  UNL1        0.1421
     23 H           0.1818    4.0745   -0.7870 H       1  UNL1        0.1427
@<TRIPOS>BOND
     1    21    19    1
     2    12     7    1
     3    20    18    1
     4    13     8    1
     5    19    18    1
     6    19    23    1
     7    19    22    1
     8    18     2   am
     9     7     8   ar
    10     7     6   ar
    11     8     9   ar
    12     5     4    1
    13     4     1    2
    14     4     6    1
    15    17     1    1
    16     1     2    1
    17     6    11   ar
    18     2     3    2
    19     9    14    1
    20     9    10   ar
    21    11    10   ar
    22    11    16    1
    23    10    15    1
