@<TRIPOS>MOLECULE
GS-880-0.out
 18 18 0 0 0
SMALL
MULLIKEN_CHARGES
****
Gaussian 16 # wB97XD def2tzvp, opt=(calcfc, maxcycles=70, maxstep=10), freq=norama
@<TRIPOS>ATOM
      1 C          -1.2249    0.2386    0.1568 C.2     1  UNL1       -0.0545
      2 C           0.0246    1.0735    0.0558 C.2     1  UNL1        0.2912
      3 O          -0.0757    2.2799    0.0482 O.2     1  UNL1       -0.3633
      4 C          -2.3043    0.6135   -0.5190 C.2     1  UNL1       -0.0650
      5 CL         -3.7992   -0.2111   -0.5105 Cl      1  UNL1       -0.0449
      6 H          -2.2767    1.4980   -1.1391 H       1  UNL1        0.2022
      7 CL         -1.1971   -1.1478    1.1811 Cl      1  UNL1       -0.0530
      8 C           1.3427    0.3969   -0.0584 C.ar    1  UNL1        0.1223
      9 C           2.4716    1.0531    0.4275 C.ar    1  UNL1       -0.2035
     10 C           3.7218    0.4763    0.2905 C.ar    1  UNL1       -0.1275
     11 C           3.8535   -0.7473   -0.3535 C.ar    1  UNL1       -0.1265
     12 C           2.7340   -1.3965   -0.8546 C.ar    1  UNL1       -0.1405
     13 C           1.4786   -0.8326   -0.6984 C.ar    1  UNL1       -0.2233
     14 H           2.3577    2.0112    0.9175 H       1  UNL1        0.1524
     15 H           4.5953    0.9811    0.6818 H       1  UNL1        0.1515
     16 H           4.8325   -1.1954   -0.4663 H       1  UNL1        0.1533
     17 H           2.8383   -2.3446   -1.3654 H       1  UNL1        0.1522
     18 H           0.6095   -1.3424   -1.0941 H       1  UNL1        0.1770
@<TRIPOS>BOND
     1    17    12    1
     2     6     4    1
     3    18    13    1
     4    12    13   ar
     5    12    11   ar
     6    13     8   ar
     7     4     5    1
     8     4     1    2
     9    16    11    1
    10    11    10   ar
    11     8     2    1
    12     8     9   ar
    13     3     2    2
    14     2     1    1
    15     1     7    1
    16    10     9   ar
    17    10    15    1
    18     9    14    1
