@<TRIPOS>MOLECULE
GS-884-0.out
 25 25 0 0 0
SMALL
MULLIKEN_CHARGES
****
Gaussian 16 # wB97XD def2tzvp, opt=(calcfc, maxcycles=70, maxstep=10), freq=norama
@<TRIPOS>ATOM
      1 C           0.6611    0.2028    0.0493 C.2     1  UNL1       -0.1376
      2 C           1.5501   -0.9967    0.1217 C.2     1  UNL1        0.4366
      3 O           2.6511   -1.0374    0.6162 O.2     1  UNL1       -0.4266
      4 C           1.1918    1.4286   -0.0097 C.2     1  UNL1        0.1143
      5 CL          0.1171    2.8053   -0.0289 Cl      1  UNL1       -0.0863
      6 C           2.6242    1.8338   -0.0752 C.3     1  UNL1       -0.3666
      7 H           3.2736    0.9747   -0.2039 H       1  UNL1        0.1490
      8 H           2.7656    2.5343   -0.8989 H       1  UNL1        0.1479
      9 H           2.9034    2.3487    0.8464 H       1  UNL1        0.1545
     10 C          -0.8065   -0.0534    0.0469 C.ar    1  UNL1        0.2077
     11 C          -1.5426    0.0343   -1.1300 C.ar    1  UNL1       -0.2336
     12 C          -2.9057   -0.2174   -1.1243 C.ar    1  UNL1       -0.1401
     13 C          -3.5461   -0.5606    0.0584 C.ar    1  UNL1       -0.1351
     14 C          -2.8164   -0.6530    1.2347 C.ar    1  UNL1       -0.1441
     15 C          -1.4519   -0.4035    1.2280 C.ar    1  UNL1       -0.2171
     16 H          -1.0430    0.3023   -2.0528 H       1  UNL1        0.1479
     17 H          -3.4692   -0.1457   -2.0461 H       1  UNL1        0.1445
     18 H          -4.6108   -0.7564    0.0627 H       1  UNL1        0.1466
     19 H          -3.3094   -0.9201    2.1608 H       1  UNL1        0.1447
     20 H          -0.8836   -0.4773    2.1476 H       1  UNL1        0.1450
     21 O           0.9591   -2.0586   -0.4214 O.3     1  UNL1       -0.2728
     22 C           1.6939   -3.2834   -0.3875 C.3     1  UNL1       -0.2099
     23 H           1.0510   -4.0235   -0.8542 H       1  UNL1        0.1487
     24 H           2.6248   -3.1848   -0.9444 H       1  UNL1        0.1407
     25 H           1.9133   -3.5661    0.6414 H       1  UNL1        0.1417
@<TRIPOS>BOND
     1    16    11    1
     2    17    12    1
     3    11    12   ar
     4    11    10   ar
     5    12    13   ar
     6    24    22    1
     7     8     6    1
     8    23    22    1
     9    21    22    1
    10    21     2    1
    11    22    25    1
    12     7     6    1
    13     6     4    1
    14     6     9    1
    15     5     4    1
    16     4     1    2
    17    10     1    1
    18    10    15   ar
    19     1     2    1
    20    13    18    1
    21    13    14   ar
    22     2     3    2
    23    15    14   ar
    24    15    20    1
    25    14    19    1
