@<TRIPOS>MOLECULE
GS-865-0.out
 8 7 0 0 0
SMALL
MULLIKEN_CHARGES
****
Gaussian 16 # wB97XD def2tzvp, opt=(calcfc, maxcycles=70, maxstep=10), freq=norama
@<TRIPOS>ATOM
      1 C           0.3248    0.5264   -0.0000 C.2     1  UNL1       -0.0495
      2 C           1.5632    1.3512    0.0000 C.2     1  UNL1        0.1522
      3 O           1.5568    2.5542   -0.0000 O.2     1  UNL1       -0.3457
      4 C          -0.8674    1.1153    0.0000 C.2     1  UNL1       -0.0381
      5 CL         -2.3687    0.3167    0.0000 Cl      1  UNL1       -0.0241
      6 H          -0.9269    2.1954    0.0000 H       1  UNL1        0.2026
      7 BR          0.5746   -1.3356    0.0000 Br      1  UNL1       -0.0252
      8 H           2.5038    0.7762    0.0000 H       1  UNL1        0.1277
@<TRIPOS>BOND
     1     1     7    1
     2     1     2    1
     3     1     4    2
     4     3     2    2
     5     5     4    1
     6     2     8    1
     7     4     6    1
