@<TRIPOS>MOLECULE
GS-848-0.out
 28 29 0 0 0
SMALL
MULLIKEN_CHARGES
****
Gaussian 16 # wB97XD def2tzvp, opt=(calcfc, maxcycles=70, maxstep=10), freq=norama
@<TRIPOS>ATOM
      1 C           0.8450   -0.9774    0.1410 C.2     1  UNL1       -0.0125
      2 C          -0.5260   -1.5123    0.4702 C.2     1  UNL1        0.2641
      3 O          -0.6539   -2.5512    1.0841 O.2     1  UNL1       -0.3806
      4 C           1.7440   -1.9056   -0.1774 C.2     1  UNL1       -0.0481
      5 CL          3.4020   -1.6098   -0.5270 Cl      1  UNL1       -0.0625
      6 H           1.4836   -2.9533   -0.2205 H       1  UNL1        0.1843
      7 C           1.0901    0.4798    0.2388 C.ar    1  UNL1        0.1144
      8 C           1.6846    1.1963   -0.7971 C.ar    1  UNL1       -0.2646
      9 C           1.8801    2.5633   -0.6830 C.ar    1  UNL1       -0.1265
     10 C           1.4865    3.2313    0.4679 C.ar    1  UNL1       -0.1339
     11 C           0.8910    2.5260    1.5036 C.ar    1  UNL1       -0.1491
     12 C           0.6897    1.1599    1.3872 C.ar    1  UNL1       -0.2154
     13 H           1.9794    0.6847   -1.7041 H       1  UNL1        0.1663
     14 H           2.3375    3.1089   -1.4984 H       1  UNL1        0.1463
     15 H           1.6395    4.2993    0.5554 H       1  UNL1        0.1479
     16 H           0.5793    3.0400    2.4037 H       1  UNL1        0.1463
     17 H           0.2195    0.6166    2.1985 H       1  UNL1        0.1551
     18 C          -1.7198   -0.7391    0.0230 C.ar    1  UNL1        0.1013
     19 C          -2.8957   -0.8383    0.7630 C.ar    1  UNL1       -0.1972
     20 C          -4.0322   -0.1597    0.3588 C.ar    1  UNL1       -0.1356
     21 C          -4.0075    0.6046   -0.8006 C.ar    1  UNL1       -0.1208
     22 C          -2.8437    0.6933   -1.5515 C.ar    1  UNL1       -0.1555
     23 C          -1.6991    0.0331   -1.1357 C.ar    1  UNL1       -0.1926
     24 H          -2.9056   -1.4439    1.6598 H       1  UNL1        0.1490
     25 H          -4.9392   -0.2272    0.9454 H       1  UNL1        0.1492
     26 H          -4.8977    1.1317   -1.1196 H       1  UNL1        0.1514
     27 H          -2.8264    1.2808   -2.4601 H       1  UNL1        0.1487
     28 H          -0.7943    0.1083   -1.7241 H       1  UNL1        0.1701
@<TRIPOS>BOND
     1    27    22    1
     2    28    23    1
     3    13     8    1
     4    22    23   ar
     5    22    21   ar
     6    14     9    1
     7    23    18   ar
     8    26    21    1
     9    21    20   ar
    10     8     9   ar
    11     8     7   ar
    12     9    10   ar
    13     5     4    1
    14     6     4    1
    15     4     1    2
    16    18     2    1
    17    18    19   ar
    18     1     7    1
    19     1     2    1
    20     7    12   ar
    21    20    19   ar
    22    20    25    1
    23    10    15    1
    24    10    11   ar
    25     2     3    2
    26    19    24    1
    27    12    11   ar
    28    12    17    1
    29    11    16    1
