@<TRIPOS>MOLECULE
GS-857-0.out
 11 10 0 0 0
SMALL
MULLIKEN_CHARGES
****
Gaussian 16 # wB97XD def2tzvp, opt=(calcfc, maxcycles=70, maxstep=10), freq=norama
@<TRIPOS>ATOM
      1 C           0.4691    0.0445    0.0000 C.2     1  UNL1       -0.0262
      2 C           1.7287   -0.7225    0.0000 C.2     1  UNL1        0.1478
      3 O           2.8244   -0.2119   -0.0000 O.2     1  UNL1       -0.3765
      4 C          -0.6354   -0.7012   -0.0000 C.2     1  UNL1       -0.0431
      5 CL         -2.2368   -0.0808    0.0000 Cl      1  UNL1       -0.0637
      6 H          -0.6019   -1.7826   -0.0000 H       1  UNL1        0.1862
      7 C           0.5477    1.5336   -0.0000 C.3     1  UNL1       -0.3560
      8 H           1.0967    1.8791   -0.8775 H       1  UNL1        0.1452
      9 H          -0.4396    1.9889   -0.0000 H       1  UNL1        0.1367
     10 H           1.0967    1.8791    0.8775 H       1  UNL1        0.1452
     11 H           1.6187   -1.8219    0.0000 H       1  UNL1        0.1044
@<TRIPOS>BOND
     1     8     7    1
     2     9     7    1
     3     6     4    1
     4     1     2    1
     5     1     4    2
     6     1     7    1
     7     2     3    2
     8     2    11    1
     9     4     5    1
    10     7    10    1
