@<TRIPOS>MOLECULE
GS-81-1.out
 31 32 0 0 0
SMALL
MULLIKEN_CHARGES
****
Gaussian 16 # wB97XD def2tzvp, opt=(maxcycles=70, maxstep=1), freq=noraman, scrf=(
@<TRIPOS>ATOM
      1 C           0.8840    1.2247   -0.0732 C.2     1  UNL1        0.0523
      2 C           1.9508    2.2474   -0.1019 C.2     1  UNL1        0.1141
      3 O           1.8423    3.4203    0.1803 O.2     1  UNL1       -0.3837
      4 C          -0.4300    1.5364   -0.0299 C.2     1  UNL1        0.0369
      5 C          -1.4571    0.4684    0.0977 C.ar    1  UNL1        0.1706
      6 C          -1.4255   -0.4149    1.1747 C.ar    1  UNL1       -0.2189
      7 C          -2.3873   -1.4038    1.3035 C.ar    1  UNL1       -0.1517
      8 C          -3.3864   -1.5330    0.3490 C.ar    1  UNL1       -0.1319
      9 C          -3.4270   -0.6565   -0.7261 C.ar    1  UNL1       -0.1535
     10 C          -2.4774    0.3463   -0.8430 C.ar    1  UNL1       -0.2387
     11 H          -0.6415   -0.3236    1.9156 H       1  UNL1        0.1589
     12 H          -2.3541   -2.0774    2.1504 H       1  UNL1        0.1439
     13 H          -4.1327   -2.3112    0.4445 H       1  UNL1        0.1464
     14 H          -4.2021   -0.7516   -1.4758 H       1  UNL1        0.1446
     15 H          -2.5167    1.0242   -1.6871 H       1  UNL1        0.1580
     16 C          -0.9699    2.9346   -0.0756 C.3     1  UNL1       -0.3468
     17 H          -1.9691    2.9368   -0.5098 H       1  UNL1        0.1364
     18 H          -1.0621    3.3209    0.9436 H       1  UNL1        0.1520
     19 H          -0.3257    3.6165   -0.6225 H       1  UNL1        0.1424
     20 C           1.3881   -0.1754   -0.1412 C.ar    1  UNL1        0.1211
     21 C           1.0000   -1.0331   -1.1687 C.ar    1  UNL1       -0.2162
     22 C           1.4861   -2.3288   -1.2304 C.ar    1  UNL1       -0.1573
     23 C           2.3767   -2.7867   -0.2685 C.ar    1  UNL1       -0.1334
     24 C           2.7824   -1.9374    0.7500 C.ar    1  UNL1       -0.1418
     25 C           2.2940   -0.6401    0.8094 C.ar    1  UNL1       -0.2548
     26 H           0.3067   -0.6804   -1.9221 H       1  UNL1        0.1555
     27 H           1.1714   -2.9827   -2.0340 H       1  UNL1        0.1421
     28 H           2.7556   -3.7997   -0.3159 H       1  UNL1        0.1452
     29 H           3.4781   -2.2849    1.5033 H       1  UNL1        0.1432
     30 H           2.6070    0.0133    1.6158 H       1  UNL1        0.1507
     31 H           2.9376    1.8482   -0.4040 H       1  UNL1        0.1141
@<TRIPOS>BOND
     1    27    22    1
     2    26    21    1
     3    15    10    1
     4    14     9    1
     5    22    21   ar
     6    22    23   ar
     7    21    20   ar
     8    10     9   ar
     9    10     5   ar
    10     9     8   ar
    11    19    16    1
    12    17    16    1
    13    31     2    1
    14    28    23    1
    15    23    24   ar
    16    20     1    1
    17    20    25   ar
    18     2     1    1
    19     2     3    2
    20    16     4    1
    21    16    18    1
    22     1     4    2
    23     4     5    1
    24     5     6   ar
    25     8    13    1
    26     8     7   ar
    27    24    25   ar
    28    24    29    1
    29    25    30    1
    30     6     7   ar
    31     6    11    1
    32     7    12    1
