@<TRIPOS>MOLECULE
GS-819-0.out
 23 23 0 0 0
SMALL
MULLIKEN_CHARGES
****
Gaussian 16 # wB97XD def2tzvp, opt=(calcfc, maxcycles=70, maxstep=10), freq=norama
@<TRIPOS>ATOM
      1 C           1.6864   -0.0686    0.0416 C.2     1  UNL1       -0.0108
      2 C           1.4735   -1.5552    0.2010 C.2     1  UNL1        0.2520
      3 O           1.9220   -2.3394   -0.6217 O.2     1  UNL1       -0.4546
      4 C           0.6388    0.7460   -0.0635 C.2     1  UNL1        0.0292
      5 CL          0.8742    2.4771   -0.2323 Cl      1  UNL1       -0.1100
      6 C          -0.7851    0.3394   -0.0898 C.ar    1  UNL1        0.1213
      7 C          -1.6913    0.8546    0.8349 C.ar    1  UNL1       -0.2067
      8 C          -3.0130    0.4421    0.8212 C.ar    1  UNL1       -0.1351
      9 C          -3.4470   -0.4790   -0.1234 C.ar    1  UNL1       -0.1407
     10 C          -2.5534   -0.9837   -1.0555 C.ar    1  UNL1       -0.1395
     11 C          -1.2283   -0.5751   -1.0411 C.ar    1  UNL1       -0.1928
     12 H          -1.3563    1.5735    1.5722 H       1  UNL1        0.1522
     13 H          -3.7069    0.8398    1.5506 H       1  UNL1        0.1476
     14 H          -4.4814   -0.7979   -0.1343 H       1  UNL1        0.1487
     15 H          -2.8873   -1.6947   -1.8003 H       1  UNL1        0.1479
     16 H          -0.5317   -0.9659   -1.7721 H       1  UNL1        0.1590
     17 C           3.1294    0.3216   -0.0259 C.3     1  UNL1       -0.3486
     18 H           3.6200   -0.2445   -0.8194 H       1  UNL1        0.1463
     19 H           3.2569    1.3834   -0.2163 H       1  UNL1        0.1333
     20 H           3.6324    0.0704    0.9110 H       1  UNL1        0.1469
     21 N           0.8362   -1.9446    1.3160 N.am    1  UNL1       -0.4230
     22 H           0.6506   -2.9223    1.4620 H       1  UNL1        0.2816
     23 H           0.4521   -1.2781    1.9610 H       1  UNL1        0.2957
@<TRIPOS>BOND
     1    15    10    1
     2    16    11    1
     3    10    11   ar
     4    10     9   ar
     5    11     6   ar
     6    18    17    1
     7     3     2    2
     8     5     4    1
     9    19    17    1
    10    14     9    1
    11     9     8   ar
    12     6     4    1
    13     6     7   ar
    14     4     1    2
    15    17     1    1
    16    17    20    1
    17     1     2    1
    18     2    21   am
    19     8     7   ar
    20     8    13    1
    21     7    12    1
    22    21    22    1
    23    21    23    1
