@<TRIPOS>MOLECULE
GS-831-2.out
 30 31 0 0 0
SMALL
MULLIKEN_CHARGES
****
Gaussian 16 # wB97XD def2tzvp, opt=(calcfc, maxcycles=70, maxstep=10), freq=norama
@<TRIPOS>ATOM
      1 C          -1.4949   -0.5370    0.0473 C.2     1  UNL1       -0.0641
      2 C          -0.1493   -1.1639    0.3257 C.2     1  UNL1        0.3143
      3 O           0.0069   -1.9194    1.2633 O.2     1  UNL1       -0.4308
      4 C          -1.6800    0.7825   -0.0136 C.2     1  UNL1        0.0615
      5 CL         -3.2404    1.4627   -0.3323 Cl      1  UNL1       -0.0566
      6 C          -0.5961    1.7714    0.1942 C.ar    1  UNL1        0.0786
      7 C           0.1603    1.7411    1.3626 C.ar    1  UNL1       -0.1883
      8 C           1.2116    2.6279    1.5334 C.ar    1  UNL1       -0.1326
      9 C           1.5114    3.5506    0.5427 C.ar    1  UNL1       -0.1307
     10 C           0.7510    3.5922   -0.6181 C.ar    1  UNL1       -0.1377
     11 C          -0.3034    2.7115   -0.7915 C.ar    1  UNL1       -0.1961
     12 H          -0.0746    1.0220    2.1370 H       1  UNL1        0.1627
     13 H           1.7954    2.5972    2.4439 H       1  UNL1        0.1505
     14 H           2.3349    4.2402    0.6754 H       1  UNL1        0.1510
     15 H           0.9810    4.3113   -1.3933 H       1  UNL1        0.1501
     16 H          -0.8927    2.7427   -1.6993 H       1  UNL1        0.1566
     17 BR         -2.8864   -1.7911   -0.1138 Br      1  UNL1       -0.0196
     18 N           0.8109   -0.8052   -0.5589 N.am    1  UNL1       -0.2493
     19 C           2.2017   -0.9941   -0.4177 C.ar    1  UNL1        0.3204
     20 C           3.0375    0.0012   -0.9174 C.ar    1  UNL1       -0.2937
     21 C           4.4114   -0.1349   -0.8212 C.ar    1  UNL1       -0.1073
     22 C           4.9617   -1.2584   -0.2197 C.ar    1  UNL1       -0.1736
     23 C           4.1247   -2.2465    0.2762 C.ar    1  UNL1       -0.0908
     24 C           2.7460   -2.1265    0.1775 C.ar    1  UNL1       -0.3116
     25 H           0.5362   -0.1384   -1.2619 H       1  UNL1        0.2788
     26 H           2.6064    0.8863   -1.3711 H       1  UNL1        0.1642
     27 H           5.0528    0.6448   -1.2115 H       1  UNL1        0.1468
     28 H           6.0359   -1.3629   -0.1400 H       1  UNL1        0.1456
     29 H           4.5451   -3.1289    0.7416 H       1  UNL1        0.1472
     30 H           2.0991   -2.9017    0.5575 H       1  UNL1        0.1545
@<TRIPOS>BOND
     1    16    11    1
     2    15    10    1
     3    26    20    1
     4    25    18    1
     5    27    21    1
     6    20    21   ar
     7    20    19   ar
     8    21    22   ar
     9    11    10   ar
    10    11     6   ar
    11    10     9   ar
    12    18    19    1
    13    18     2   am
    14    19    24   ar
    15     5     4    1
    16    22    28    1
    17    22    23   ar
    18    17     1    1
    19     4     1    2
    20     4     6    1
    21     1     2    1
    22    24    23   ar
    23    24    30    1
    24     6     7   ar
    25    23    29    1
    26     2     3    2
    27     9    14    1
    28     9     8   ar
    29     7     8   ar
    30     7    12    1
    31     8    13    1
