@<TRIPOS>MOLECULE
GS-834-0.out
 21 21 0 0 0
SMALL
MULLIKEN_CHARGES
****
Gaussian 16 # wB97XD def2tzvp, opt=(calcfc, maxcycles=70, maxstep=10), freq=norama
@<TRIPOS>ATOM
      1 C           1.3710   -0.0813   -0.1123 C.2     1  UNL1       -0.0366
      2 C           1.2379   -1.5586   -0.3913 C.2     1  UNL1        0.2436
      3 O           0.4089   -1.9546   -1.1737 O.2     1  UNL1       -0.3535
      4 C           0.3218    0.7326    0.0277 C.2     1  UNL1        0.0422
      5 CL          0.5485    2.4338    0.2649 Cl      1  UNL1       -0.0583
      6 C          -1.0898    0.2916    0.0562 C.ar    1  UNL1        0.2282
      7 C          -1.5190   -0.5885    1.0443 C.ar    1  UNL1       -0.2285
      8 C          -2.8418   -1.0011    1.0811 C.ar    1  UNL1       -0.1255
      9 C          -3.7417   -0.5350    0.1346 C.ar    1  UNL1       -0.1451
     10 C          -3.3180    0.3524   -0.8460 C.ar    1  UNL1       -0.1298
     11 C          -1.9989    0.7712   -0.8826 C.ar    1  UNL1       -0.2306
     12 H          -0.8166   -0.9463    1.7868 H       1  UNL1        0.1628
     13 H          -3.1689   -1.6850    1.8535 H       1  UNL1        0.1492
     14 H          -4.7745   -0.8579    0.1631 H       1  UNL1        0.1500
     15 H          -4.0179    0.7196   -1.5854 H       1  UNL1        0.1492
     16 H          -1.6699    1.4639   -1.6470 H       1  UNL1        0.1540
     17 CL          2.9995    0.4884    0.0131 Cl      1  UNL1       -0.0640
     18 C           2.1785   -2.4839    0.3245 C.3     1  UNL1       -0.3834
     19 H           3.1617   -2.4427   -0.1486 H       1  UNL1        0.1673
     20 H           2.3046   -2.1889    1.3665 H       1  UNL1        0.1613
     21 H           1.7953   -3.4992    0.2572 H       1  UNL1        0.1475
@<TRIPOS>BOND
     1    16    11    1
     2    15    10    1
     3     3     2    2
     4    11    10   ar
     5    11     6   ar
     6    10     9   ar
     7     2     1    1
     8     2    18    1
     9    19    18    1
    10     1    17    1
    11     1     4    2
    12     4     6    1
    13     4     5    1
    14     6     7   ar
    15     9    14    1
    16     9     8   ar
    17    21    18    1
    18    18    20    1
    19     7     8   ar
    20     7    12    1
    21     8    13    1
