@<TRIPOS>MOLECULE
GS-855-0.out
 20 20 0 0 0
SMALL
MULLIKEN_CHARGES
****
Gaussian 16 # wB97XD def2tzvp, opt=(calcfc, maxcycles=70, maxstep=10), freq=norama
@<TRIPOS>ATOM
      1 C           2.1034   -0.3621    0.0000 C.2     1  UNL1       -0.3135
      2 C           0.7814    0.3233    0.0000 C.2     1  UNL1        0.4553
      3 O           0.6717    1.5384   -0.0000 O.2     1  UNL1       -0.4821
      4 C           3.2088    0.3643   -0.0000 C.2     1  UNL1       -0.0104
      5 CL          4.7840   -0.3244   -0.0000 Cl      1  UNL1       -0.0715
      6 H           3.1978    1.4453   -0.0000 H       1  UNL1        0.1875
      7 H           2.1473   -1.4438    0.0001 H       1  UNL1        0.1664
      8 N          -0.2676   -0.5426    0.0000 N.am    1  UNL1       -0.2743
      9 C          -1.6462   -0.2712    0.0000 C.ar    1  UNL1        0.3050
     10 C          -2.5054   -1.3715   -0.0000 C.ar    1  UNL1       -0.2979
     11 C          -3.8760   -1.1904   -0.0000 C.ar    1  UNL1       -0.0970
     12 C          -4.4141    0.0898   -0.0000 C.ar    1  UNL1       -0.1870
     13 C          -3.5602    1.1807    0.0000 C.ar    1  UNL1       -0.1044
     14 C          -2.1819    1.0151    0.0000 C.ar    1  UNL1       -0.2915
     15 H          -0.0315   -1.5213    0.0000 H       1  UNL1        0.2658
     16 H          -2.0948   -2.3745   -0.0000 H       1  UNL1        0.1462
     17 H          -4.5261   -2.0559   -0.0000 H       1  UNL1        0.1472
     18 H          -5.4867    0.2326   -0.0000 H       1  UNL1        0.1443
     19 H          -3.9657    2.1848    0.0000 H       1  UNL1        0.1454
     20 H          -1.5275    1.8708    0.0000 H       1  UNL1        0.1663
@<TRIPOS>BOND
     1     6     4    1
     2    17    11    1
     3     3     2    2
     4    11    10   ar
     5    11    12   ar
     6    18    12    1
     7     4     5    1
     8     4     1    2
     9    16    10    1
    10    10     9   ar
    11    12    13   ar
    12     2     8   am
    13     2     1    1
    14    13    14   ar
    15    13    19    1
    16     9     8    1
    17     9    14   ar
    18     8    15    1
    19    14    20    1
    20     1     7    1
