@<TRIPOS>MOLECULE
GS-843-0.out
 20 20 0 0 0
SMALL
MULLIKEN_CHARGES
****
Gaussian 16 # wB97XD def2tzvp, opt=(calcfc, maxcycles=70, maxstep=10), freq=norama
@<TRIPOS>ATOM
      1 C          -0.9911   -0.1123    0.0010 C.2     1  UNL1       -0.0688
      2 C          -1.7702   -1.4030    0.0189 C.2     1  UNL1        0.3274
      3 O          -2.9928   -1.4280    0.0088 O.2     1  UNL1       -0.4787
      4 C          -1.7132    1.0008   -0.0112 C.2     1  UNL1       -0.0264
      5 CL         -1.0392    2.5822   -0.0347 Cl      1  UNL1       -0.0666
      6 H          -2.7932    0.9797   -0.0085 H       1  UNL1        0.1851
      7 C           0.4943   -0.1326    0.0004 C.ar    1  UNL1        0.0244
      8 C           1.1958   -0.2205   -1.1991 C.ar    1  UNL1       -0.1859
      9 C           2.5822   -0.2499   -1.1983 C.ar    1  UNL1       -0.1429
     10 C           3.2788   -0.1949    0.0005 C.ar    1  UNL1       -0.1190
     11 C           2.5852   -0.1106    1.1992 C.ar    1  UNL1       -0.1448
     12 C           1.1988   -0.0810    1.2002 C.ar    1  UNL1       -0.1829
     13 H           0.6514   -0.2638   -2.1345 H       1  UNL1        0.1475
     14 H           3.1186   -0.3152   -2.1363 H       1  UNL1        0.1471
     15 H           4.3610   -0.2183    0.0005 H       1  UNL1        0.1491
     16 H           3.1239   -0.0673    2.1371 H       1  UNL1        0.1469
     17 H           0.6565   -0.0155    2.1354 H       1  UNL1        0.1477
     18 N          -1.0241   -2.5205    0.0482 N.am    1  UNL1       -0.4349
     19 H          -1.4848   -3.4136    0.0620 H       1  UNL1        0.2797
     20 H          -0.0203   -2.4919    0.0574 H       1  UNL1        0.2959
@<TRIPOS>BOND
     1    14     9    1
     2    13     8    1
     3     8     9   ar
     4     8     7   ar
     5     9    10   ar
     6     5     4    1
     7     4     6    1
     8     4     1    2
     9     7     1    1
    10     7    12   ar
    11    15    10    1
    12    10    11   ar
    13     1     2    1
    14     3     2    2
    15     2    18   am
    16    18    20    1
    17    18    19    1
    18    11    12   ar
    19    11    16    1
    20    12    17    1
