@<TRIPOS>MOLECULE
GS-809-0.out
 18 18 0 0 0
SMALL
MULLIKEN_CHARGES
****
Gaussian 16 # wb97xd def2tzvp opt=(calcfc, maxcycles=100, maxstep=10) freq=noraman
@<TRIPOS>ATOM
      1 C           2.0107   -0.1895   -0.0357 C.2     1  UNL1       -0.2220
      2 C           1.9440   -1.6118   -0.3718 C.2     1  UNL1        0.1553
      3 O           2.9257   -2.3212   -0.4073 O.2     1  UNL1       -0.3807
      4 C           0.9299    0.5894    0.0789 C.2     1  UNL1        0.0931
      5 CL          1.1672    2.2958    0.3186 Cl      1  UNL1       -0.0695
      6 C          -0.4801    0.1593    0.0435 C.ar    1  UNL1        0.2201
      7 C          -0.9138   -0.8669    0.8804 C.ar    1  UNL1       -0.2942
      8 C          -2.2348   -1.2861    0.8424 C.ar    1  UNL1       -0.1011
      9 C          -3.1292   -0.6858   -0.0296 C.ar    1  UNL1       -0.1434
     10 C          -2.7036    0.3437   -0.8597 C.ar    1  UNL1       -0.1284
     11 C          -1.3891    0.7726   -0.8181 C.ar    1  UNL1       -0.2208
     12 H          -0.2201   -1.3228    1.5752 H       1  UNL1        0.1781
     13 H          -2.5638   -2.0795    1.5006 H       1  UNL1        0.1527
     14 H          -4.1602   -1.0138   -0.0595 H       1  UNL1        0.1524
     15 H          -3.3999    0.8151   -1.5409 H       1  UNL1        0.1516
     16 H          -1.0615    1.5781   -1.4627 H       1  UNL1        0.1578
     17 H           3.0025    0.2309    0.0719 H       1  UNL1        0.1652
     18 H           0.9509   -2.0176   -0.6242 H       1  UNL1        0.1337
@<TRIPOS>BOND
     1    15    10    1
     2    16    11    1
     3    10    11   ar
     4    10     9   ar
     5    11     6   ar
     6    18     2    1
     7     3     2    2
     8     2     1    1
     9    14     9    1
    10     1    17    1
    11     1     4    2
    12     9     8   ar
    13     6     4    1
    14     6     7   ar
    15     4     5    1
    16     8     7   ar
    17     8    13    1
    18     7    12    1
