@<TRIPOS>MOLECULE
GS-890-0.out
 14 13 0 0 0
SMALL
MULLIKEN_CHARGES
****
Gaussian 16 # wB97XD def2tzvp, opt=(calcfc, maxcycles=70, maxstep=10), freq=norama
@<TRIPOS>ATOM
      1 C          -0.3113   -0.5264   -0.0001 C.2     1  UNL1       -0.3224
      2 C          -1.6913    0.0170   -0.0001 C.2     1  UNL1        0.3357
      3 O          -1.9634    1.2013   -0.0001 O.2     1  UNL1       -0.4210
      4 C           0.8171    0.1851   -0.0000 C.2     1  UNL1        0.1565
      5 CL          2.3232   -0.7031   -0.0000 Cl      1  UNL1       -0.0993
      6 C           1.0069    1.6583    0.0001 C.3     1  UNL1       -0.3420
      7 H           0.0462    2.1628    0.0001 H       1  UNL1        0.1535
      8 H           1.5815    1.9545    0.8798 H       1  UNL1        0.1510
      9 H           1.5815    1.9546   -0.8796 H       1  UNL1        0.1510
     10 H          -0.2379   -1.6062   -0.0001 H       1  UNL1        0.1670
     11 C          -2.7692   -1.0345    0.0001 C.3     1  UNL1       -0.3787
     12 H          -2.6604   -1.6749    0.8783 H       1  UNL1        0.1556
     13 H          -3.7518   -0.5695   -0.0005 H       1  UNL1        0.1375
     14 H          -2.6597   -1.6761   -0.8772 H       1  UNL1        0.1556
@<TRIPOS>BOND
     1     9     6    1
     2    14    11    1
     3    13    11    1
     4    10     1    1
     5     3     2    2
     6     1     2    1
     7     1     4    2
     8     2    11    1
     9     5     4    1
    10     4     6    1
    11    11    12    1
    12     6     7    1
    13     6     8    1
