@<TRIPOS>MOLECULE
GS-82-1.out
 34 35 0 0 0
SMALL
MULLIKEN_CHARGES
****
Gaussian 16 # wB97XD def2tzvp, opt=(maxcycles=70, maxstep=1), freq=noraman, scrf=(
@<TRIPOS>ATOM
      1 C           0.9967   -0.8532   -0.0397 C.2     1  UNL1       -0.0138
      2 C           2.3313   -1.5311   -0.0484 C.2     1  UNL1        0.2181
      3 O           2.5462   -2.5306   -0.7038 O.2     1  UNL1       -0.3985
      4 C          -0.1547   -1.5475   -0.0419 C.2     1  UNL1        0.0627
      5 C          -1.4632   -0.8361   -0.0845 C.ar    1  UNL1        0.1515
      6 C          -1.7875   -0.0253   -1.1695 C.ar    1  UNL1       -0.2135
      7 C          -3.0060    0.6334   -1.2199 C.ar    1  UNL1       -0.1554
      8 C          -3.9152    0.4969   -0.1805 C.ar    1  UNL1       -0.1321
      9 C          -3.6029   -0.3124    0.9026 C.ar    1  UNL1       -0.1533
     10 C          -2.3902   -0.9830    0.9444 C.ar    1  UNL1       -0.2451
     11 H          -1.0757    0.0909   -1.9771 H       1  UNL1        0.1551
     12 H          -3.2443    1.2571   -2.0722 H       1  UNL1        0.1424
     13 H          -4.8642    1.0168   -0.2155 H       1  UNL1        0.1451
     14 H          -4.3058   -0.4230    1.7186 H       1  UNL1        0.1432
     15 H          -2.1538   -1.6082    1.7970 H       1  UNL1        0.1532
     16 C          -0.2631   -3.0438   -0.0024 C.3     1  UNL1       -0.3426
     17 H          -1.0396   -3.3368    0.7064 H       1  UNL1        0.1357
     18 H          -0.5776   -3.4130   -0.9823 H       1  UNL1        0.1449
     19 H           0.6692   -3.5336    0.2598 H       1  UNL1        0.1364
     20 C           1.0310    0.6359    0.0374 C.ar    1  UNL1        0.1458
     21 C           0.5212    1.3106    1.1437 C.ar    1  UNL1       -0.2174
     22 C           0.5595    2.6947    1.2071 C.ar    1  UNL1       -0.1586
     23 C           1.1133    3.4250    0.1648 C.ar    1  UNL1       -0.1273
     24 C           1.6335    2.7621   -0.9377 C.ar    1  UNL1       -0.1413
     25 C           1.5959    1.3772   -0.9971 C.ar    1  UNL1       -0.2461
     26 H           0.0865    0.7429    1.9571 H       1  UNL1        0.1525
     27 H           0.1566    3.2044    2.0733 H       1  UNL1        0.1415
     28 H           1.1417    4.5062    0.2128 H       1  UNL1        0.1448
     29 H           2.0679    3.3241   -1.7548 H       1  UNL1        0.1426
     30 H           1.9992    0.8650   -1.8632 H       1  UNL1        0.1476
     31 C           3.4181   -0.9077    0.7896 C.3     1  UNL1       -0.3645
     32 H           3.0307   -0.5827    1.7561 H       1  UNL1        0.1482
     33 H           4.2293   -1.6200    0.9220 H       1  UNL1        0.1418
     34 H           3.8029   -0.0193    0.2843 H       1  UNL1        0.1564
@<TRIPOS>BOND
     1    12     7    1
     2    11     6    1
     3    30    25    1
     4    29    24    1
     5     7     6   ar
     6     7     8   ar
     7     6     5   ar
     8    25    24   ar
     9    25    20   ar
    10    18    16    1
    11    24    23   ar
    12     3     2    2
    13    13     8    1
    14     8     9   ar
    15     5     4    1
    16     5    10   ar
    17     2     1    1
    18     2    31    1
    19     4     1    2
    20     4    16    1
    21     1    20    1
    22    16    19    1
    23    16    17    1
    24    20    21   ar
    25    23    28    1
    26    23    22   ar
    27    34    31    1
    28    31    33    1
    29    31    32    1
    30     9    10   ar
    31     9    14    1
    32    10    15    1
    33    21    22   ar
    34    21    26    1
    35    22    27    1
