@<TRIPOS>MOLECULE
GS-813-0.out
 23 23 0 0 0
SMALL
MULLIKEN_CHARGES
****
Gaussian 16 # wB97XD def2tzvp, opt=(calcfc, maxcycles=70, maxstep=10), freq=norama
@<TRIPOS>ATOM
      1 C           1.2794    1.3674    0.0341 C.2     1  UNL1       -0.2362
      2 C           2.1728    0.1707    0.0858 C.2     1  UNL1        0.3278
      3 O           3.0825    0.1213    0.9060 O.2     1  UNL1       -0.4880
      4 C          -0.0483    1.3362    0.0296 C.2     1  UNL1        0.1104
      5 CL         -0.9146    2.8561   -0.0257 Cl      1  UNL1       -0.1018
      6 C          -0.9101    0.1369    0.0999 C.ar    1  UNL1        0.0797
      7 C          -0.7070   -0.8004    1.1101 C.ar    1  UNL1       -0.1847
      8 C          -1.4862   -1.9447    1.1675 C.ar    1  UNL1       -0.1411
      9 C          -2.4739   -2.1620    0.2181 C.ar    1  UNL1       -0.1304
     10 C          -2.6860   -1.2269   -0.7857 C.ar    1  UNL1       -0.1414
     11 C          -1.9134   -0.0788   -0.8420 C.ar    1  UNL1       -0.1956
     12 H           0.0605   -0.6287    1.8543 H       1  UNL1        0.1609
     13 H          -1.3230   -2.6653    1.9583 H       1  UNL1        0.1492
     14 H          -3.0819   -3.0564    0.2627 H       1  UNL1        0.1503
     15 H          -3.4561   -1.3917   -1.5281 H       1  UNL1        0.1490
     16 H          -2.0827    0.6496   -1.6250 H       1  UNL1        0.1532
     17 H           1.7997    2.3158    0.0671 H       1  UNL1        0.1733
     18 N           1.9493   -0.7942   -0.8172 N.am    1  UNL1       -0.2863
     19 C           2.6912   -2.0352   -0.8139 C.3     1  UNL1       -0.2533
     20 H           1.1705   -0.6961   -1.4442 H       1  UNL1        0.2786
     21 H           2.4019   -2.6155   -1.6862 H       1  UNL1        0.1495
     22 H           3.7624   -1.8391   -0.8565 H       1  UNL1        0.1389
     23 H           2.4815   -2.6165    0.0866 H       1  UNL1        0.1379
@<TRIPOS>BOND
     1    21    19    1
     2    16    11    1
     3    15    10    1
     4    20    18    1
     5    22    19    1
     6    11    10   ar
     7    11     6   ar
     8    18    19    1
     9    18     2   am
    10    19    23    1
    11    10     9   ar
    12     5     4    1
    13     4     1    2
    14     4     6    1
    15     1    17    1
    16     1     2    1
    17     2     3    2
    18     6     7   ar
    19     9    14    1
    20     9     8   ar
    21     7     8   ar
    22     7    12    1
    23     8    13    1
