@<TRIPOS>MOLECULE
GS-867-0.out
 10 9 0 0 0
SMALL
MULLIKEN_CHARGES
****
Gaussian 16 # wB97XD def2tzvp, opt=(calcfc, maxcycles=70, maxstep=10), freq=norama
@<TRIPOS>ATOM
      1 C           0.2212    0.4105    0.0000 C.2     1  UNL1       -0.0778
      2 C           1.6383    0.9293    0.0000 C.2     1  UNL1        0.3200
      3 O           1.8436    2.1329    0.0000 O.2     1  UNL1       -0.4647
      4 C          -0.7658    1.2978   -0.0000 C.2     1  UNL1       -0.0400
      5 CL         -2.4319    0.9340   -0.0000 Cl      1  UNL1       -0.0391
      6 H          -0.5301    2.3523   -0.0000 H       1  UNL1        0.2015
      7 BR         -0.1084   -1.4464    0.0000 Br      1  UNL1       -0.0441
      8 N           2.6198    0.0190   -0.0000 N.am    1  UNL1       -0.4311
      9 H           3.5717    0.3419   -0.0000 H       1  UNL1        0.2889
     10 H           2.4433   -0.9693   -0.0000 H       1  UNL1        0.2863
@<TRIPOS>BOND
     1    10     8    1
     2     9     8    1
     3     8     2   am
     4     5     4    1
     5     6     4    1
     6     4     1    2
     7     1     2    1
     8     1     7    1
     9     2     3    2
