@<TRIPOS>MOLECULE
GS-808-0.out
 38 40 0 0 0
SMALL
MULLIKEN_CHARGES
****
Gaussian 16 # wb97xd def2tzvp opt=(calcfc, maxcycles=100, maxstep=10) freq=noraman
@<TRIPOS>ATOM
      1 C           0.9284   -0.1587    0.2500 C.2     1  UNL1        0.0448
      2 C           0.1495    0.9276    0.9556 C.2     1  UNL1        0.2442
      3 O           0.4937    1.2687    2.0671 O.2     1  UNL1       -0.3721
      4 C           0.3152   -1.2708   -0.1585 C.2     1  UNL1        0.0249
      5 CL          1.2030   -2.5024   -1.0231 Cl      1  UNL1       -0.0817
      6 C          -1.1118   -1.5868    0.0555 C.ar    1  UNL1        0.1823
      7 C          -1.9367   -1.9169   -1.0185 C.ar    1  UNL1       -0.2503
      8 C          -3.2857   -2.1450   -0.8150 C.ar    1  UNL1       -0.1359
      9 C          -3.8230   -2.0635    0.4642 C.ar    1  UNL1       -0.1243
     10 C          -3.0034   -1.7582    1.5389 C.ar    1  UNL1       -0.1409
     11 C          -1.6515   -1.5222    1.3368 C.ar    1  UNL1       -0.2358
     12 H          -1.5221   -1.9751   -2.0169 H       1  UNL1        0.1545
     13 H          -3.9224   -2.3845   -1.6568 H       1  UNL1        0.1478
     14 H          -4.8787   -2.2442    0.6207 H       1  UNL1        0.1495
     15 H          -3.4130   -1.7056    2.5392 H       1  UNL1        0.1481
     16 H          -1.0109   -1.2923    2.1785 H       1  UNL1        0.1646
     17 C           2.3806    0.1144    0.1181 C.ar    1  UNL1        0.1733
     18 C           2.8118    1.1979   -0.6427 C.ar    1  UNL1       -0.2058
     19 C           4.1643    1.4802   -0.7584 C.ar    1  UNL1       -0.1549
     20 C           5.0978    0.6901   -0.1034 C.ar    1  UNL1       -0.1319
     21 C           4.6732   -0.3829    0.6680 C.ar    1  UNL1       -0.1264
     22 C           3.3219   -0.6698    0.7789 C.ar    1  UNL1       -0.2802
     23 H           2.0868    1.8211   -1.1532 H       1  UNL1        0.1614
     24 H           4.4882    2.3202   -1.3595 H       1  UNL1        0.1451
     25 H           6.1537    0.9122   -0.1904 H       1  UNL1        0.1473
     26 H           5.3967   -0.9982    1.1875 H       1  UNL1        0.1455
     27 H           2.9916   -1.5051    1.3832 H       1  UNL1        0.1559
     28 C          -0.9780    1.5965    0.2499 C.ar    1  UNL1        0.1162
     29 C          -1.8910    2.3366    0.9993 C.ar    1  UNL1       -0.2426
     30 C          -2.9385    2.9876    0.3740 C.ar    1  UNL1       -0.1177
     31 C          -3.0723    2.9187   -1.0078 C.ar    1  UNL1       -0.1209
     32 C          -2.1602    2.1940   -1.7605 C.ar    1  UNL1       -0.1568
     33 C          -1.1198    1.5277   -1.1333 C.ar    1  UNL1       -0.2119
     34 H          -1.7740    2.3848    2.0739 H       1  UNL1        0.1484
     35 H          -3.6532    3.5497    0.9608 H       1  UNL1        0.1496
     36 H          -3.8908    3.4310   -1.4973 H       1  UNL1        0.1517
     37 H          -2.2612    2.1432   -2.8367 H       1  UNL1        0.1487
     38 H          -0.4161    0.9551   -1.7235 H       1  UNL1        0.1861
@<TRIPOS>BOND
     1    37    32    1
     2    12     7    1
     3    32    33   ar
     4    32    31   ar
     5    38    33    1
     6    13     8    1
     7    36    31    1
     8    24    19    1
     9    23    18    1
    10    33    28   ar
    11     5     4    1
    12     7     8   ar
    13     7     6   ar
    14    31    30   ar
    15     8     9   ar
    16    19    18   ar
    17    19    20   ar
    18    18    17   ar
    19    25    20    1
    20     4     6    1
    21     4     1    2
    22    20    21   ar
    23     6    11   ar
    24    17     1    1
    25    17    22   ar
    26    28     2    1
    27    28    29   ar
    28     1     2    1
    29    30    35    1
    30    30    29   ar
    31     9    14    1
    32     9    10   ar
    33    21    22   ar
    34    21    26    1
    35    22    27    1
    36     2     3    2
    37    29    34    1
    38    11    10   ar
    39    11    16    1
    40    10    15    1
