@<TRIPOS>MOLECULE
GS-870-0.out
 16 15 0 0 0
SMALL
MULLIKEN_CHARGES
****
Gaussian 16 # wB97XD def2tzvp, opt=(calcfc, maxcycles=70, maxstep=10), freq=norama
@<TRIPOS>ATOM
      1 C           0.2296   -0.3214   -0.2359 C.2     1  UNL1       -0.1194
      2 C          -1.2208   -0.4324   -0.6457 C.2     1  UNL1        0.3249
      3 O          -1.4825   -0.5876   -1.8310 O.2     1  UNL1       -0.4740
      4 C           0.9908   -1.3944   -0.1121 C.2     1  UNL1       -0.0959
      5 CL          2.6690   -1.3860    0.2445 Cl      1  UNL1       -0.0636
      6 H           0.5703   -2.3834   -0.2341 H       1  UNL1        0.2013
      7 BR          0.8658    1.4425   -0.0575 Br      1  UNL1       -0.0181
      8 N          -2.1399   -0.3315    0.3267 N.am    1  UNL1       -0.0998
      9 C          -3.5507   -0.3461   -0.0103 C.3     1  UNL1       -0.2780
     10 C          -1.8420   -0.1791    1.7379 C.3     1  UNL1       -0.2930
     11 H          -3.6657   -0.3555   -1.0891 H       1  UNL1        0.1523
     12 H          -4.0285   -1.2316    0.4135 H       1  UNL1        0.1480
     13 H          -4.0330    0.5422    0.4015 H       1  UNL1        0.1436
     14 H          -0.7836   -0.3196    1.9327 H       1  UNL1        0.1703
     15 H          -2.1404    0.8133    2.0828 H       1  UNL1        0.1529
     16 H          -2.3978   -0.9275    2.3051 H       1  UNL1        0.1486
@<TRIPOS>BOND
     1     3     2    2
     2    11     9    1
     3     2     1    1
     4     2     8   am
     5     1     4    2
     6     1     7    1
     7     6     4    1
     8     4     5    1
     9     9     8    1
    10     9    13    1
    11     9    12    1
    12     8    10    1
    13    10    14    1
    14    10    15    1
    15    10    16    1
