@<TRIPOS>MOLECULE
GS-897-0.out
 14 13 0 0 0
SMALL
MULLIKEN_CHARGES
****
Gaussian 16 # wB97XD def2tzvp, opt=(calcfc, maxcycles=70, maxstep=10), freq=norama
@<TRIPOS>ATOM
      1 C          -0.5948   -0.1985   -0.0061 C.2     1  UNL1       -0.0538
      2 C          -1.8172    0.6256   -0.0003 C.2     1  UNL1        0.1581
      3 O          -2.9294    0.1456    0.0082 O.2     1  UNL1       -0.3856
      4 C           0.6025    0.4073   -0.0030 C.2     1  UNL1        0.1093
      5 CL          2.0572   -0.5610    0.0045 Cl      1  UNL1       -0.0943
      6 C           0.9304    1.8636   -0.0031 C.3     1  UNL1       -0.3275
      7 H           1.5229    2.1042    0.8809 H       1  UNL1        0.1544
      8 H           1.5367    2.1000   -0.8789 H       1  UNL1        0.1544
      9 H           0.0505    2.4986   -0.0118 H       1  UNL1        0.1240
     10 C          -0.8263   -1.6783   -0.0065 C.3     1  UNL1       -0.3498
     11 H          -1.4721   -1.9527   -0.8418 H       1  UNL1        0.1388
     12 H           0.1002   -2.2390   -0.0794 H       1  UNL1        0.1350
     13 H          -1.3452   -1.9759    0.9066 H       1  UNL1        0.1402
     14 H          -1.6988    1.7182   -0.0026 H       1  UNL1        0.0968
@<TRIPOS>BOND
     1     8     6    1
     2    11    10    1
     3    12    10    1
     4     9     6    1
     5    10     1    1
     6    10    13    1
     7     1     4    2
     8     1     2    1
     9     6     4    1
    10     6     7    1
    11     4     5    1
    12    14     2    1
    13     2     3    2
