@<TRIPOS>MOLECULE
GS-822-0.out
 29 29 0 0 0
SMALL
MULLIKEN_CHARGES
****
Gaussian 16 # wB97XD def2tzvp, opt=(calcfc, maxcycles=70, maxstep=10), freq=norama
@<TRIPOS>ATOM
      1 C           1.4596    0.7260   -0.1903 C.2     1  UNL1       -0.0507
      2 C           1.6344   -0.7563   -0.4215 C.2     1  UNL1        0.2342
      3 O           2.0610   -1.1256   -1.5126 O.2     1  UNL1       -0.4852
      4 C           0.2347    1.2414   -0.1213 C.2     1  UNL1        0.0287
      5 CL          0.0106    2.9713    0.0795 Cl      1  UNL1       -0.1136
      6 C          -1.0322    0.4776   -0.1816 C.ar    1  UNL1        0.2091
      7 C          -1.9879    0.6115    0.8246 C.ar    1  UNL1       -0.2679
      8 C          -3.1504   -0.1394    0.7914 C.ar    1  UNL1       -0.1194
      9 C          -3.3785   -1.0269   -0.2522 C.ar    1  UNL1       -0.1425
     10 C          -2.4393   -1.1550   -1.2638 C.ar    1  UNL1       -0.1398
     11 C          -1.2733   -0.4047   -1.2318 C.ar    1  UNL1       -0.2177
     12 H          -1.8133    1.2997    1.6420 H       1  UNL1        0.1503
     13 H          -3.8800   -0.0339    1.5841 H       1  UNL1        0.1465
     14 H          -4.2886   -1.6124   -0.2778 H       1  UNL1        0.1476
     15 H          -2.6145   -1.8369   -2.0860 H       1  UNL1        0.1465
     16 H          -0.5446   -0.5030   -2.0258 H       1  UNL1        0.1525
     17 C           2.7500    1.4818   -0.1476 C.3     1  UNL1       -0.3530
     18 H           3.3419    1.2451   -1.0332 H       1  UNL1        0.1486
     19 H           2.5949    2.5560   -0.1010 H       1  UNL1        0.1341
     20 H           3.3336    1.1750    0.7245 H       1  UNL1        0.1479
     21 N           1.3486   -1.6015    0.5842 N.am    1  UNL1       -0.0786
     22 C           1.4182   -3.0326    0.3659 C.3     1  UNL1       -0.2800
     23 C           0.9298   -1.2021    1.9128 C.3     1  UNL1       -0.3119
     24 H           1.6225   -3.2302   -0.6812 H       1  UNL1        0.1514
     25 H           2.2076   -3.4738    0.9784 H       1  UNL1        0.1461
     26 H           0.4657   -3.4886    0.6441 H       1  UNL1        0.1396
     27 H           1.0864   -0.1393    2.0674 H       1  UNL1        0.1688
     28 H          -0.1277   -1.4302    2.0676 H       1  UNL1        0.1554
     29 H           1.5169   -1.7510    2.6509 H       1  UNL1        0.1530
@<TRIPOS>BOND
     1    15    10    1
     2    16    11    1
     3     3     2    2
     4    10    11   ar
     5    10     9   ar
     6    11     6   ar
     7    18    17    1
     8    24    22    1
     9     2     1    1
    10     2    21   am
    11    14     9    1
    12     9     8   ar
    13     1    17    1
    14     1     4    2
    15     6     4    1
    16     6     7   ar
    17    17    19    1
    18    17    20    1
    19     4     5    1
    20    22    21    1
    21    22    26    1
    22    22    25    1
    23    21    23    1
    24     8     7   ar
    25     8    13    1
    26     7    12    1
    27    23    27    1
    28    23    28    1
    29    23    29    1
