@<TRIPOS>MOLECULE
GS-85-0.out
 36 37 0 0 0
SMALL
MULLIKEN_CHARGES
****
Gaussian 16 # wB97XD def2tzvp, opt=(calcfc, maxcycles=70, maxstep=10), freq=norama
@<TRIPOS>ATOM
      1 C           0.8088   -0.6052    0.1070 C.2     1  UNL1        0.0622
      2 C           2.2326   -1.0821    0.2315 C.2     1  UNL1        0.2651
      3 O           2.5970   -1.8907    1.0786 O.2     1  UNL1       -0.4856
      4 C          -0.2132   -1.4715    0.0777 C.2     1  UNL1        0.0765
      5 C          -1.6243   -0.9942    0.0724 C.ar    1  UNL1        0.1168
      6 C          -2.1066   -0.2144    1.1212 C.ar    1  UNL1       -0.2080
      7 C          -3.4213    0.2242    1.1305 C.ar    1  UNL1       -0.1582
      8 C          -4.2739   -0.1069    0.0868 C.ar    1  UNL1       -0.1325
      9 C          -3.8050   -0.8885   -0.9595 C.ar    1  UNL1       -0.1532
     10 C          -2.4929   -1.3370   -0.9609 C.ar    1  UNL1       -0.2442
     11 H          -1.4415    0.0521    1.9332 H       1  UNL1        0.1544
     12 H          -3.7802    0.8275    1.9549 H       1  UNL1        0.1417
     13 H          -5.2995    0.2398    0.0901 H       1  UNL1        0.1445
     14 H          -4.4626   -1.1505   -1.7789 H       1  UNL1        0.1425
     15 H          -2.1363   -1.9412   -1.7864 H       1  UNL1        0.1505
     16 C          -0.0583   -2.9652    0.0639 C.3     1  UNL1       -0.3523
     17 H           0.9731   -3.2825   -0.0560 H       1  UNL1        0.1361
     18 H          -0.4439   -3.3866    0.9959 H       1  UNL1        0.1413
     19 H          -0.6581   -3.3902   -0.7437 H       1  UNL1        0.1353
     20 C           0.6391    0.8708    0.0070 C.ar    1  UNL1        0.0262
     21 C           1.1686    1.7037    0.9915 C.ar    1  UNL1       -0.1901
     22 C           1.0188    3.0789    0.9113 C.ar    1  UNL1       -0.1640
     23 C           0.3480    3.6448   -0.1645 C.ar    1  UNL1       -0.1197
     24 C          -0.1663    2.8265   -1.1597 C.ar    1  UNL1       -0.1635
     25 C          -0.0195    1.4502   -1.0751 C.ar    1  UNL1       -0.1949
     26 H           1.6929    1.2679    1.8342 H       1  UNL1        0.1450
     27 H           1.4263    3.7105    1.6905 H       1  UNL1        0.1423
     28 H           0.2319    4.7192   -0.2289 H       1  UNL1        0.1452
     29 H          -0.6822    3.2602   -2.0071 H       1  UNL1        0.1415
     30 H          -0.4227    0.8146   -1.8534 H       1  UNL1        0.1541
     31 N           3.0907   -0.5388   -0.6492 N.am    1  UNL1       -0.2840
     32 C           4.5039   -0.8402   -0.6341 C.3     1  UNL1       -0.2628
     33 H           2.7448    0.1403   -1.3040 H       1  UNL1        0.2738
     34 H           4.9591   -0.5369    0.3106 H       1  UNL1        0.1358
     35 H           4.6744   -1.9091   -0.7688 H       1  UNL1        0.1349
     36 H           4.9838   -0.3010   -1.4470 H       1  UNL1        0.1470
@<TRIPOS>BOND
     1    29    24    1
     2    30    25    1
     3    15    10    1
     4    14     9    1
     5    36    32    1
     6    33    31    1
     7    24    25   ar
     8    24    23   ar
     9    25    20   ar
    10    10     9   ar
    11    10     5   ar
    12     9     8   ar
    13    35    32    1
    14    19    16    1
    15    31    32    1
    16    31     2   am
    17    32    34    1
    18    28    23    1
    19    23    22   ar
    20    17    16    1
    21    20     1    1
    22    20    21   ar
    23    16     4    1
    24    16    18    1
    25     5     4    1
    26     5     6   ar
    27     4     1    2
    28     8    13    1
    29     8     7   ar
    30     1     2    1
    31     2     3    2
    32    22    21   ar
    33    22    27    1
    34    21    26    1
    35     6     7   ar
    36     6    11    1
    37     7    12    1
