@<TRIPOS>MOLECULE
GS-886-0.out
 29 29 0 0 0
SMALL
MULLIKEN_CHARGES
****
Gaussian 16 # wB97XD def2tzvp, opt=(calcfc, maxcycles=70, maxstep=10), freq=norama
@<TRIPOS>ATOM
      1 C          -0.3658    0.3978   -0.2469 C.2     1  UNL1       -0.1025
      2 C          -1.4463   -0.6108   -0.5705 C.2     1  UNL1        0.2539
      3 O          -1.7594   -0.7971   -1.7422 O.2     1  UNL1       -0.4821
      4 C          -0.6983    1.6809   -0.1558 C.2     1  UNL1        0.0899
      5 CL          0.5324    2.9113    0.0381 Cl      1  UNL1       -0.1069
      6 C          -2.0780    2.2456   -0.2160 C.3     1  UNL1       -0.3768
      7 H          -2.8201    1.4574   -0.3328 H       1  UNL1        0.1478
      8 H          -2.2982    2.7991    0.6985 H       1  UNL1        0.1495
      9 H          -2.1698    2.9387   -1.0538 H       1  UNL1        0.1515
     10 C           0.9998   -0.1749   -0.1436 C.ar    1  UNL1        0.1936
     11 C           1.7776    0.0212    0.9957 C.ar    1  UNL1       -0.2646
     12 C           3.0379   -0.5467    1.0934 C.ar    1  UNL1       -0.1333
     13 C           3.5366   -1.3210    0.0554 C.ar    1  UNL1       -0.1399
     14 C           2.7648   -1.5296   -1.0785 C.ar    1  UNL1       -0.1461
     15 C           1.5019   -0.9659   -1.1755 C.ar    1  UNL1       -0.2363
     16 H           1.3920    0.6193    1.8114 H       1  UNL1        0.1668
     17 H           3.6301   -0.3865    1.9854 H       1  UNL1        0.1449
     18 H           4.5215   -1.7638    0.1322 H       1  UNL1        0.1465
     19 H           3.1458   -2.1345   -1.8915 H       1  UNL1        0.1447
     20 H           0.8995   -1.1339   -2.0594 H       1  UNL1        0.1479
     21 N          -1.9811   -1.2928    0.4580 N.am    1  UNL1       -0.0839
     22 C          -2.9475   -2.3448    0.2111 C.3     1  UNL1       -0.2805
     23 C          -1.6199   -1.0976    1.8479 C.3     1  UNL1       -0.2791
     24 H          -3.1108   -2.4426   -0.8570 H       1  UNL1        0.1520
     25 H          -2.5756   -3.2907    0.6109 H       1  UNL1        0.1413
     26 H          -3.8928   -2.1068    0.7030 H       1  UNL1        0.1444
     27 H          -1.0230   -0.1996    1.9704 H       1  UNL1        0.1616
     28 H          -2.5270   -0.9921    2.4454 H       1  UNL1        0.1477
     29 H          -1.0552   -1.9553    2.2211 H       1  UNL1        0.1482
@<TRIPOS>BOND
     1    20    15    1
     2    19    14    1
     3     3     2    2
     4    15    14   ar
     5    15    10   ar
     6    14    13   ar
     7     9     6    1
     8    24    22    1
     9     2     1    1
    10     2    21   am
    11     7     6    1
    12     1     4    2
    13     1    10    1
    14     6     4    1
    15     6     8    1
    16     4     5    1
    17    10    11   ar
    18    13    18    1
    19    13    12   ar
    20    22    21    1
    21    22    25    1
    22    22    26    1
    23    21    23    1
    24    11    12   ar
    25    11    16    1
    26    12    17    1
    27    23    27    1
    28    23    29    1
    29    23    28    1
