@<TRIPOS>MOLECULE
GS-877-0.out
 13 12 0 0 0
SMALL
MULLIKEN_CHARGES
****
Gaussian 16 # wB97XD def2tzvp, opt=(calcfc, maxcycles=70, maxstep=10), freq=norama
@<TRIPOS>ATOM
      1 C           0.2420   -0.0079    0.0000 C.2     1  UNL1       -0.0691
      2 C          -1.1689   -0.5385    0.0000 C.2     1  UNL1        0.3799
      3 O          -1.3679   -1.7460    0.0000 O.2     1  UNL1       -0.4879
      4 C           1.2462   -0.8752   -0.0000 C.2     1  UNL1       -0.0526
      5 CL          2.9013   -0.4589   -0.0000 Cl      1  UNL1       -0.0462
      6 H           1.0351   -1.9342   -0.0000 H       1  UNL1        0.1988
      7 CL          0.5064    1.6995    0.0000 Cl      1  UNL1       -0.0731
      8 N          -2.1511    0.3667   -0.0000 N.am    1  UNL1       -0.2973
      9 C          -3.5421   -0.0310   -0.0000 C.3     1  UNL1       -0.2519
     10 H          -1.9216    1.3447   -0.0000 H       1  UNL1        0.2649
     11 H          -4.1578    0.8642    0.0001 H       1  UNL1        0.1512
     12 H          -3.7745   -0.6245   -0.8850 H       1  UNL1        0.1417
     13 H          -3.7745   -0.6246    0.8850 H       1  UNL1        0.1417
@<TRIPOS>BOND
     1    12     9    1
     2    10     8    1
     3     8     9    1
     4     8     2   am
     5     9    11    1
     6     9    13    1
     7     5     4    1
     8     6     4    1
     9     4     1    2
    10     1     2    1
    11     1     7    1
    12     2     3    2
