@<TRIPOS>MOLECULE
GS-858-0.out
 14 13 0 0 0
SMALL
MULLIKEN_CHARGES
****
Gaussian 16 # wB97XD def2tzvp, opt=(calcfc, maxcycles=70, maxstep=10), freq=norama
@<TRIPOS>ATOM
      1 C           0.1624    0.3431   -0.0000 C.2     1  UNL1       -0.0869
      2 C           1.5990   -0.0759   -0.0000 C.2     1  UNL1        0.2859
      3 O           2.4604    0.7795   -0.0000 O.2     1  UNL1       -0.3940
      4 C          -0.7729   -0.6037   -0.0000 C.2     1  UNL1       -0.0439
      5 CL         -2.4708   -0.3002   -0.0000 Cl      1  UNL1       -0.0792
      6 H          -0.5535   -1.6602   -0.0000 H       1  UNL1        0.1942
      7 C          -0.0978    1.8145    0.0000 C.3     1  UNL1       -0.3446
      8 H           0.3576    2.2769   -0.8768 H       1  UNL1        0.1413
      9 H          -1.1625    2.0331    0.0000 H       1  UNL1        0.1328
     10 H           0.3576    2.2769    0.8768 H       1  UNL1        0.1413
     11 C           1.9664   -1.5373    0.0000 C.3     1  UNL1       -0.4148
     12 H           1.5645   -2.0388    0.8817 H       1  UNL1        0.1627
     13 H           1.5645   -2.0388   -0.8817 H       1  UNL1        0.1627
     14 H           3.0497   -1.6262   -0.0000 H       1  UNL1        0.1426
@<TRIPOS>BOND
     1    13    11    1
     2     8     7    1
     3    14    11    1
     4     3     2    2
     5     5     4    1
     6     6     4    1
     7     1     2    1
     8     1     4    2
     9     1     7    1
    10     2    11    1
    11     7     9    1
    12     7    10    1
    13    11    12    1
