@<TRIPOS>MOLECULE
GS-828-0.out
 22 22 0 0 0
SMALL
MULLIKEN_CHARGES
****
Gaussian 16 # wB97XD def2tzvp, opt=(calcfc, maxcycles=70, maxstep=10), freq=norama
@<TRIPOS>ATOM
      1 C           0.9579    0.0915    0.0139 C.2     1  UNL1       -0.0492
      2 C           0.5792    1.5426    0.0628 C.2     1  UNL1        0.3396
      3 O           1.0014    2.3105    0.8869 O.2     1  UNL1       -0.3835
      4 C           0.0557   -0.8900    0.0022 C.2     1  UNL1        0.0317
      5 CL          0.5392   -2.5499   -0.0823 Cl      1  UNL1       -0.0550
      6 C          -1.4034   -0.6672    0.1001 C.ar    1  UNL1        0.2257
      7 C          -2.2660   -1.1919   -0.8593 C.ar    1  UNL1       -0.2310
      8 C          -3.6259   -0.9502   -0.7738 C.ar    1  UNL1       -0.1337
      9 C          -4.1372   -0.1955    0.2744 C.ar    1  UNL1       -0.1399
     10 C          -3.2835    0.3138    1.2404 C.ar    1  UNL1       -0.1256
     11 C          -1.9200    0.0774    1.1566 C.ar    1  UNL1       -0.2405
     12 H          -1.8698   -1.7789   -1.6781 H       1  UNL1        0.1564
     13 H          -4.2900   -1.3507   -1.5287 H       1  UNL1        0.1500
     14 H          -5.2017   -0.0107    0.3395 H       1  UNL1        0.1510
     15 H          -3.6772    0.8923    2.0660 H       1  UNL1        0.1513
     16 H          -1.2554    0.4645    1.9189 H       1  UNL1        0.1683
     17 BR          2.8156   -0.1957    0.0404 Br      1  UNL1       -0.0145
     18 O          -0.2473    1.8646   -0.9178 O.3     1  UNL1       -0.2525
     19 C          -0.7552    3.2042   -0.9069 C.3     1  UNL1       -0.1996
     20 H          -1.4123    3.2728   -1.7678 H       1  UNL1        0.1542
     21 H          -1.3110    3.3833    0.0127 H       1  UNL1        0.1479
     22 H           0.0614    3.9193   -0.9903 H       1  UNL1        0.1491
@<TRIPOS>BOND
     1    20    19    1
     2    12     7    1
     3    13     8    1
     4    22    19    1
     5    18    19    1
     6    18     2    1
     7    19    21    1
     8     7     8   ar
     9     7     6   ar
    10     8     9   ar
    11     5     4    1
    12     4     1    2
    13     4     6    1
    14     1    17    1
    15     1     2    1
    16     2     3    2
    17     6    11   ar
    18     9    14    1
    19     9    10   ar
    20    11    10   ar
    21    11    16    1
    22    10    15    1
