@<TRIPOS>MOLECULE
GS-875-0.out
 10 9 0 0 0
SMALL
MULLIKEN_CHARGES
****
Gaussian 16 # wB97XD def2tzvp, opt=(calcfc, maxcycles=70, maxstep=10), freq=norama
@<TRIPOS>ATOM
      1 C          -0.1828   -0.0206    0.0000 C.2     1  UNL1       -0.0380
      2 C          -1.5826   -0.5806    0.0000 C.2     1  UNL1        0.3221
      3 O          -1.7562   -1.7889    0.0000 O.2     1  UNL1       -0.4651
      4 C           0.8385   -0.8682   -0.0000 C.2     1  UNL1       -0.0494
      5 CL          2.4837   -0.4194   -0.0000 Cl      1  UNL1       -0.0425
      6 H           0.6479   -1.9312   -0.0000 H       1  UNL1        0.2014
      7 CL          0.0451    1.6913    0.0000 Cl      1  UNL1       -0.0716
      8 N          -2.5824    0.3095   -0.0000 N.am    1  UNL1       -0.4312
      9 H          -3.5283   -0.0302   -0.0000 H       1  UNL1        0.2894
     10 H          -2.4217    1.3004   -0.0000 H       1  UNL1        0.2849
@<TRIPOS>BOND
     1    10     8    1
     2     9     8    1
     3     8     2   am
     4     1     2    1
     5     1     4    2
     6     1     7    1
     7     2     3    2
     8     4     5    1
     9     4     6    1
