@<TRIPOS>MOLECULE
GS-807-0.out
 40 42 0 0 0
SMALL
MULLIKEN_CHARGES
****
Gaussian 16 # wb97xd def2tzvp opt=(calcfc, maxcycles=100, maxstep=10) freq=noraman
@<TRIPOS>ATOM
      1 C          -1.2702    0.0590    0.0891 C.2     1  UNL1        0.0661
      2 C          -0.1330   -0.8756    0.4307 C.2     1  UNL1        0.2760
      3 O          -0.1869   -1.5783    1.4232 O.2     1  UNL1       -0.4434
      4 C          -1.0425    1.3662   -0.0566 C.2     1  UNL1        0.0672
      5 CL         -2.3432    2.4426   -0.5038 Cl      1  UNL1       -0.0776
      6 C           0.2633    2.0386    0.1287 C.ar    1  UNL1        0.0280
      7 C           0.8123    2.8183   -0.8872 C.ar    1  UNL1       -0.2020
      8 C           2.0637    3.3894   -0.7274 C.ar    1  UNL1       -0.1490
      9 C           2.7719    3.2003    0.4516 C.ar    1  UNL1       -0.1152
     10 C           2.2219    2.4406    1.4732 C.ar    1  UNL1       -0.1536
     11 C           0.9719    1.8632    1.3147 C.ar    1  UNL1       -0.1822
     12 H           0.2638    2.9654   -1.8091 H       1  UNL1        0.1535
     13 H           2.4884    3.9822   -1.5271 H       1  UNL1        0.1483
     14 H           3.7494    3.6485    0.5746 H       1  UNL1        0.1501
     15 H           2.7645    2.2979    2.3987 H       1  UNL1        0.1483
     16 H           0.5422    1.2726    2.1139 H       1  UNL1        0.1612
     17 C          -2.5967   -0.5979   -0.0022 C.ar    1  UNL1        0.1519
     18 C          -2.8179   -1.5662   -0.9779 C.ar    1  UNL1       -0.2080
     19 C          -4.0438   -2.2075   -1.0642 C.ar    1  UNL1       -0.1614
     20 C          -5.0554   -1.8965   -0.1669 C.ar    1  UNL1       -0.1263
     21 C          -4.8358   -0.9425    0.8169 C.ar    1  UNL1       -0.1355
     22 C          -3.6126   -0.2957    0.8995 C.ar    1  UNL1       -0.2562
     23 H          -2.0279   -1.8145   -1.6770 H       1  UNL1        0.1493
     24 H          -4.2076   -2.9527   -1.8321 H       1  UNL1        0.1456
     25 H          -6.0118   -2.3996   -0.2313 H       1  UNL1        0.1478
     26 H          -5.6187   -0.7021    1.5248 H       1  UNL1        0.1457
     27 H          -3.4410    0.4457    1.6695 H       1  UNL1        0.1577
     28 N           0.8871   -0.8727   -0.4633 N.am    1  UNL1       -0.2334
     29 C           2.1615   -1.4537   -0.3251 C.ar    1  UNL1        0.3095
     30 C           3.2036   -0.8803   -1.0520 C.ar    1  UNL1       -0.3024
     31 C           4.4809   -1.4052   -0.9708 C.ar    1  UNL1       -0.0987
     32 C           4.7357   -2.5039   -0.1610 C.ar    1  UNL1       -0.1789
     33 C           3.6964   -3.0728    0.5584 C.ar    1  UNL1       -0.0999
     34 C           2.4088   -2.5608    0.4810 C.ar    1  UNL1       -0.3060
     35 H           0.7997   -0.2104   -1.2169 H       1  UNL1        0.2740
     36 H           3.0101   -0.0157   -1.6763 H       1  UNL1        0.1550
     37 H           5.2810   -0.9488   -1.5393 H       1  UNL1        0.1466
     38 H           5.7354   -2.9127   -0.0939 H       1  UNL1        0.1446
     39 H           3.8823   -3.9332    1.1889 H       1  UNL1        0.1458
     40 H           1.6046   -3.0120    1.0395 H       1  UNL1        0.1576
@<TRIPOS>BOND
     1    24    19    1
     2    12     7    1
     3    23    18    1
     4    36    30    1
     5    37    31    1
     6    13     8    1
     7    35    28    1
     8    19    18   ar
     9    19    20   ar
    10    30    31   ar
    11    30    29   ar
    12    18    17   ar
    13    31    32   ar
    14     7     8   ar
    15     7     6   ar
    16     8     9   ar
    17     5     4    1
    18    28    29    1
    19    28     2   am
    20    29    34   ar
    21    25    20    1
    22    20    21   ar
    23    32    38    1
    24    32    33   ar
    25     4     1    2
    26     4     6    1
    27    17     1    1
    28    17    22   ar
    29     1     2    1
    30     6    11   ar
    31     2     3    2
    32     9    14    1
    33     9    10   ar
    34    34    33   ar
    35    34    40    1
    36    33    39    1
    37    21    22   ar
    38    21    26    1
    39    22    27    1
    40    11    10   ar
    41    11    16    1
    42    10    15    1
