@<TRIPOS>MOLECULE
GS-892-0.out
 15 14 0 0 0
SMALL
MULLIKEN_CHARGES
****
Gaussian 16 # wB97XD def2tzvp, opt=(calcfc, maxcycles=70, maxstep=10), freq=norama
@<TRIPOS>ATOM
      1 C           0.1235   -0.5013   -0.0001 C.2     1  UNL1       -0.3498
      2 C          -1.2181    0.1142   -0.0000 C.2     1  UNL1        0.4820
      3 O          -1.4901    1.2919   -0.0001 O.2     1  UNL1       -0.4394
      4 C           1.2732    0.1714   -0.0000 C.2     1  UNL1        0.1768
      5 CL          2.7438   -0.7700   -0.0000 Cl      1  UNL1       -0.0964
      6 C           1.5127    1.6380    0.0001 C.3     1  UNL1       -0.3512
      7 H           0.5710    2.1775   -0.0002 H       1  UNL1        0.1571
      8 H           2.0964    1.9139    0.8802 H       1  UNL1        0.1518
      9 H           2.0969    1.9139   -0.8796 H       1  UNL1        0.1518
     10 H           0.1370   -1.5819   -0.0000 H       1  UNL1        0.1646
     11 O          -2.1472   -0.8457    0.0000 O.3     1  UNL1       -0.2786
     12 C          -3.5083   -0.4127    0.0000 C.3     1  UNL1       -0.1959
     13 H          -4.1052   -1.3197    0.0002 H       1  UNL1        0.1487
     14 H          -3.7201    0.1796    0.8895 H       1  UNL1        0.1393
     15 H          -3.7202    0.1794   -0.8895 H       1  UNL1        0.1393
@<TRIPOS>BOND
     1    15    12    1
     2     9     6    1
     3     7     6    1
     4     3     2    2
     5     1    10    1
     6     1     2    1
     7     1     4    2
     8     2    11    1
     9     4     5    1
    10     4     6    1
    11    12    11    1
    12    12    13    1
    13    12    14    1
    14     6     8    1
