@<TRIPOS>MOLECULE
GS-894-0.out
 19 18 0 0 0
SMALL
MULLIKEN_CHARGES
****
Gaussian 16 # wB97XD def2tzvp, opt=(calcfc, maxcycles=70, maxstep=10), freq=norama
@<TRIPOS>ATOM
      1 C          -0.3465   -0.2815   -0.4077 C.2     1  UNL1       -0.3891
      2 C           0.9604    0.4370   -0.3059 C.2     1  UNL1        0.3602
      3 O           1.0524    1.6358   -0.5608 O.2     1  UNL1       -0.5086
      4 C          -1.4878    0.2083    0.0589 C.2     1  UNL1        0.1594
      5 CL         -2.9463   -0.7272   -0.2025 Cl      1  UNL1       -0.1172
      6 C          -1.7214    1.4672    0.8174 C.3     1  UNL1       -0.3488
      7 H          -0.7828    1.9852    0.9949 H       1  UNL1        0.1454
      8 H          -2.3856    2.1256    0.2544 H       1  UNL1        0.1492
      9 H          -2.2064    1.2439    1.7689 H       1  UNL1        0.1465
     10 H          -0.3485   -1.2389   -0.9120 H       1  UNL1        0.1962
     11 N           2.0279   -0.3178    0.0284 N.am    1  UNL1       -0.0986
     12 C           3.3582    0.2551   -0.0019 C.3     1  UNL1       -0.2844
     13 C           1.9497   -1.6944    0.4781 C.3     1  UNL1       -0.3082
     14 H           3.3401    1.1891   -0.5546 H       1  UNL1        0.1473
     15 H           3.7222    0.4462    1.0109 H       1  UNL1        0.1436
     16 H           4.0403   -0.4437   -0.4893 H       1  UNL1        0.1426
     17 H           0.9419   -1.9466    0.7950 H       1  UNL1        0.1666
     18 H           2.2648   -2.3857   -0.3077 H       1  UNL1        0.1508
     19 H           2.6109   -1.8235    1.3363 H       1  UNL1        0.1472
@<TRIPOS>BOND
     1    10     1    1
     2     3     2    2
     3    14    12    1
     4    16    12    1
     5     1     2    1
     6     1     4    2
     7    18    13    1
     8     2    11   am
     9     5     4    1
    10    12    11    1
    11    12    15    1
    12    11    13    1
    13     4     6    1
    14     8     6    1
    15    13    17    1
    16    13    19    1
    17     6     7    1
    18     6     9    1
