@<TRIPOS>MOLECULE
GS-879-0.out
 20 20 0 0 0
SMALL
MULLIKEN_CHARGES
****
Gaussian 16 # wB97XD def2tzvp, opt=(calcfc, maxcycles=70, maxstep=10), freq=norama
@<TRIPOS>ATOM
      1 C          -1.7989   -0.0200   -0.0000 C.2     1  UNL1       -0.0919
      2 C          -0.4016   -0.5903    0.0000 C.2     1  UNL1        0.4382
      3 O          -0.2456   -1.7983    0.0000 O.2     1  UNL1       -0.4704
      4 C          -2.8219   -0.8663    0.0000 C.2     1  UNL1       -0.0492
      5 CL         -4.4655   -0.4141    0.0000 Cl      1  UNL1       -0.0394
      6 H          -2.6340   -1.9296    0.0000 H       1  UNL1        0.2013
      7 CL         -2.0322    1.6919   -0.0000 Cl      1  UNL1       -0.0684
      8 N           0.5920    0.3235   -0.0000 N.am    1  UNL1       -0.2546
      9 C           1.9835    0.1155   -0.0000 C.ar    1  UNL1        0.3026
     10 C           2.7866    1.2566    0.0000 C.ar    1  UNL1       -0.2993
     11 C           4.1643    1.1410    0.0000 C.ar    1  UNL1       -0.0971
     12 C           4.7625   -0.1121    0.0000 C.ar    1  UNL1       -0.1830
     13 C           3.9626   -1.2431   -0.0000 C.ar    1  UNL1       -0.1077
     14 C           2.5779   -1.1438   -0.0000 C.ar    1  UNL1       -0.2851
     15 H           0.3044    1.2893   -0.0000 H       1  UNL1        0.2484
     16 H           2.3272    2.2382    0.0000 H       1  UNL1        0.1481
     17 H           4.7725    2.0364    0.0000 H       1  UNL1        0.1482
     18 H           5.8407   -0.2033    0.0000 H       1  UNL1        0.1452
     19 H           4.4158   -2.2264   -0.0000 H       1  UNL1        0.1462
     20 H           1.9653   -2.0299   -0.0000 H       1  UNL1        0.1679
@<TRIPOS>BOND
     1    20    14    1
     2    19    13    1
     3    14    13   ar
     4    14     9   ar
     5    13    12   ar
     6     7     1    1
     7     8    15    1
     8     8     9    1
     9     8     2   am
    10     9    10   ar
    11     1     2    1
    12     1     4    2
    13    12    18    1
    14    12    11   ar
    15     2     3    2
    16     5     4    1
    17     4     6    1
    18    10    11   ar
    19    10    16    1
    20    11    17    1
