@<TRIPOS>MOLECULE
GS-80-1.out
 28 29 0 0 0
SMALL
MULLIKEN_CHARGES
****
Gaussian 16 # wB97XD def2tzvp, opt=(maxcycles=70, maxstep=1), freq=noraman, scrf=(
@<TRIPOS>ATOM
      1 C           0.0656    0.3430    0.3418 C.2     1  UNL1        0.0014
      2 C          -1.2127    1.1182    0.1798 C.2     1  UNL1        0.3027
      3 O          -1.1858    2.3289    0.2295 O.2     1  UNL1       -0.3769
      4 C           1.1903    0.8066   -0.2038 C.2     1  UNL1       -0.1673
      5 C           2.5632    0.2991   -0.2138 C.ar    1  UNL1        0.2296
      6 C           2.9120   -1.0435   -0.0466 C.ar    1  UNL1       -0.2284
      7 C           4.2410   -1.4327   -0.0842 C.ar    1  UNL1       -0.1470
      8 C           5.2443   -0.4944   -0.2811 C.ar    1  UNL1       -0.1283
      9 C           4.9108    0.8406   -0.4605 C.ar    1  UNL1       -0.1505
     10 C           3.5827    1.2295   -0.4392 C.ar    1  UNL1       -0.2240
     11 H           2.1469   -1.7919    0.0941 H       1  UNL1        0.1532
     12 H           4.4937   -2.4781    0.0391 H       1  UNL1        0.1472
     13 H           6.2813   -0.8041   -0.3040 H       1  UNL1        0.1494
     14 H           5.6851    1.5786   -0.6254 H       1  UNL1        0.1475
     15 H           3.3258    2.2707   -0.5930 H       1  UNL1        0.1453
     16 H           1.0561    1.7550   -0.7151 H       1  UNL1        0.1682
     17 CL         -0.0443   -1.0868    1.3234 Cl      1  UNL1       -0.0823
     18 C          -2.4853    0.3868   -0.0711 C.ar    1  UNL1        0.1177
     19 C          -3.6797    0.9515    0.3696 C.ar    1  UNL1       -0.2096
     20 C          -4.8847    0.3256    0.1015 C.ar    1  UNL1       -0.1336
     21 C          -4.9049   -0.8548   -0.6301 C.ar    1  UNL1       -0.1254
     22 C          -3.7188   -1.4120   -1.0872 C.ar    1  UNL1       -0.1468
     23 C          -2.5099   -0.8001   -0.7992 C.ar    1  UNL1       -0.2197
     24 H          -3.6529    1.8783    0.9278 H       1  UNL1        0.1500
     25 H          -5.8098    0.7590    0.4588 H       1  UNL1        0.1502
     26 H          -5.8480   -1.3407   -0.8458 H       1  UNL1        0.1522
     27 H          -3.7352   -2.3259   -1.6664 H       1  UNL1        0.1505
     28 H          -1.5876   -1.2382   -1.1588 H       1  UNL1        0.1747
@<TRIPOS>BOND
     1    27    22    1
     2    28    23    1
     3    22    23   ar
     4    22    21   ar
     5    26    21    1
     6    23    18   ar
     7    16     4    1
     8    21    20   ar
     9    14     9    1
    10    15    10    1
    11     9    10   ar
    12     9     8   ar
    13    10     5   ar
    14    13     8    1
    15     8     7   ar
    16     5     4    1
    17     5     6   ar
    18     4     1    2
    19     7     6   ar
    20     7    12    1
    21    18     2    1
    22    18    19   ar
    23     6    11    1
    24    20    19   ar
    25    20    25    1
    26     2     3    2
    27     2     1    1
    28     1    17    1
    29    19    24    1
