@<TRIPOS>MOLECULE
GS-832-0.out
 28 29 0 0 0
SMALL
MULLIKEN_CHARGES
****
Gaussian 16 # wB97XD def2tzvp, opt=(calcfc, maxcycles=70, maxstep=10), freq=norama
@<TRIPOS>ATOM
      1 C          -1.2702   -0.1547    0.2236 C.2     1  UNL1       -0.0430
      2 C          -0.3345   -1.1575    0.8586 C.2     1  UNL1        0.2516
      3 O          -0.6190   -1.6387    1.9313 O.2     1  UNL1       -0.3540
      4 C          -0.9027    1.0863   -0.0949 C.2     1  UNL1        0.0103
      5 CL         -2.0070    2.1984   -0.8330 Cl      1  UNL1       -0.0587
      6 C           0.4517    1.6201    0.1623 C.ar    1  UNL1        0.2254
      7 C           1.2049    2.1623   -0.8775 C.ar    1  UNL1       -0.2379
      8 C           2.4940    2.6040   -0.6417 C.ar    1  UNL1       -0.1297
      9 C           3.0379    2.5232    0.6348 C.ar    1  UNL1       -0.1303
     10 C           2.2847    2.0047    1.6757 C.ar    1  UNL1       -0.1338
     11 C           0.9936    1.5552    1.4423 C.ar    1  UNL1       -0.2361
     12 H           0.7855    2.2194   -1.8739 H       1  UNL1        0.1577
     13 H           3.0793    3.0099   -1.4565 H       1  UNL1        0.1499
     14 H           4.0468    2.8707    0.8159 H       1  UNL1        0.1509
     15 H           2.6986    1.9506    2.6741 H       1  UNL1        0.1504
     16 H           0.4026    1.1590    2.2580 H       1  UNL1        0.1675
     17 BR         -3.0188   -0.8117   -0.0117 Br      1  UNL1       -0.0201
     18 C           0.8933   -1.5451    0.1169 C.ar    1  UNL1        0.1219
     19 C           1.0106   -1.3542   -1.2573 C.ar    1  UNL1       -0.2103
     20 C           2.1577   -1.7610   -1.9185 C.ar    1  UNL1       -0.1434
     21 C           3.1970   -2.3441   -1.2084 C.ar    1  UNL1       -0.1212
     22 C           3.0862   -2.5335    0.1640 C.ar    1  UNL1       -0.1160
     23 C           1.9352   -2.1439    0.8234 C.ar    1  UNL1       -0.2306
     24 H           0.2047   -0.8939   -1.8137 H       1  UNL1        0.1736
     25 H           2.2420   -1.6186   -2.9877 H       1  UNL1        0.1506
     26 H           4.0974   -2.6519   -1.7247 H       1  UNL1        0.1531
     27 H           3.8995   -2.9848    0.7170 H       1  UNL1        0.1510
     28 H           1.8351   -2.2871    1.8912 H       1  UNL1        0.1513
@<TRIPOS>BOND
     1    25    20    1
     2    20    19   ar
     3    20    21   ar
     4    12     7    1
     5    24    19    1
     6    26    21    1
     7    13     8    1
     8    19    18   ar
     9    21    22   ar
    10     7     8   ar
    11     7     6   ar
    12     5     4    1
    13     8     9   ar
    14     4     6    1
    15     4     1    2
    16    17     1    1
    17    18    23   ar
    18    18     2    1
    19     6    11   ar
    20    22    27    1
    21    22    23   ar
    22     1     2    1
    23     9    14    1
    24     9    10   ar
    25    23    28    1
    26     2     3    2
    27    11    10   ar
    28    11    16    1
    29    10    15    1
