@<TRIPOS>MOLECULE
GS-806-2.out
 36 37 0 0 0
SMALL
MULLIKEN_CHARGES
****
Gaussian 16 # wB97XD def2tzvp, opt=(calcfc, maxcycles=70, maxstep=10), freq=norama
@<TRIPOS>ATOM
      1 C          -0.5715    0.0671   -0.1958 C.2     1  UNL1       -0.0343
      2 C          -0.0671    1.4839   -0.3565 C.2     1  UNL1        0.2210
      3 O          -0.2445    2.0460   -1.4328 O.2     1  UNL1       -0.4781
      4 C           0.2908   -0.9468   -0.1949 C.2     1  UNL1        0.0714
      5 CL         -0.2885   -2.5981   -0.1403 Cl      1  UNL1       -0.0918
      6 C           1.7656   -0.8234   -0.2321 C.ar    1  UNL1        0.1893
      7 C           2.5442   -1.4223    0.7570 C.ar    1  UNL1       -0.2696
      8 C           3.9198   -1.2683    0.7527 C.ar    1  UNL1       -0.1281
      9 C           4.5352   -0.5239   -0.2453 C.ar    1  UNL1       -0.1317
     10 C           3.7677    0.0623   -1.2398 C.ar    1  UNL1       -0.1467
     11 C           2.3888   -0.0875   -1.2363 C.ar    1  UNL1       -0.2119
     12 H           2.0678   -2.0014    1.5381 H       1  UNL1        0.1522
     13 H           4.5136   -1.7288    1.5317 H       1  UNL1        0.1470
     14 H           5.6112   -0.4060   -0.2488 H       1  UNL1        0.1484
     15 H           4.2415    0.6355   -2.0263 H       1  UNL1        0.1468
     16 H           1.7925    0.3676   -2.0161 H       1  UNL1        0.1538
     17 C          -2.0486   -0.0660   -0.1160 C.ar    1  UNL1        0.1701
     18 C          -2.6421   -0.5361    1.0532 C.ar    1  UNL1       -0.2500
     19 C          -4.0211   -0.6372    1.1492 C.ar    1  UNL1       -0.1434
     20 C          -4.8222   -0.2694    0.0776 C.ar    1  UNL1       -0.1324
     21 C          -4.2373    0.2031   -1.0885 C.ar    1  UNL1       -0.1446
     22 C          -2.8580    0.3097   -1.1850 C.ar    1  UNL1       -0.2432
     23 H          -2.0204   -0.8269    1.8909 H       1  UNL1        0.1629
     24 H          -4.4698   -1.0034    2.0638 H       1  UNL1        0.1446
     25 H          -5.8993   -0.3498    0.1516 H       1  UNL1        0.1463
     26 H          -4.8567    0.4905   -1.9287 H       1  UNL1        0.1440
     27 H          -2.4009    0.6847   -2.0907 H       1  UNL1        0.1453
     28 N           0.5271    2.0692    0.6972 N.am    1  UNL1       -0.0672
     29 C           1.1029    3.3922    0.5561 C.3     1  UNL1       -0.2808
     30 C           0.7117    1.4554    1.9969 C.3     1  UNL1       -0.3023
     31 H           0.9786    3.7343   -0.4659 H       1  UNL1        0.1535
     32 H           0.6119    4.0915    1.2358 H       1  UNL1        0.1464
     33 H           2.1667    3.3557    0.8017 H       1  UNL1        0.1403
     34 H           0.1083    0.5591    2.0943 H       1  UNL1        0.1612
     35 H           1.7612    1.1928    2.1512 H       1  UNL1        0.1575
     36 H           0.4103    2.1623    2.7712 H       1  UNL1        0.1542
@<TRIPOS>BOND
     1    27    22    1
     2    15    10    1
     3    16    11    1
     4    26    21    1
     5     3     2    2
     6    10    11   ar
     7    10     9   ar
     8    11     6   ar
     9    22    21   ar
    10    22    17   ar
    11    21    20   ar
    12    31    29    1
    13     2     1    1
    14     2    28   am
    15    14     9    1
    16     9     8   ar
    17     6     4    1
    18     6     7   ar
    19     1     4    2
    20     1    17    1
    21     4     5    1
    22    17    18   ar
    23    20    25    1
    24    20    19   ar
    25    29    28    1
    26    29    33    1
    27    29    32    1
    28    28    30    1
    29     8     7   ar
    30     8    13    1
    31     7    12    1
    32    18    19   ar
    33    18    23    1
    34    19    24    1
    35    30    34    1
    36    30    35    1
    37    30    36    1
