@<TRIPOS>MOLECULE
GS-869-0.out
 13 12 0 0 0
SMALL
MULLIKEN_CHARGES
****
Gaussian 16 # wB97XD def2tzvp, opt=(calcfc, maxcycles=70, maxstep=10), freq=norama
@<TRIPOS>ATOM
      1 C          -0.1005    0.3805    0.0000 C.2     1  UNL1       -0.1112
      2 C           1.3503    0.7950    0.0000 C.2     1  UNL1        0.3821
      3 O           1.6426    1.9835    0.0001 O.2     1  UNL1       -0.4874
      4 C          -1.0213    1.3357   -0.0000 C.2     1  UNL1       -0.0435
      5 CL         -2.7105    1.0925   -0.0000 Cl      1  UNL1       -0.0428
      6 H          -0.7097    2.3704   -0.0000 H       1  UNL1        0.1986
      7 BR         -0.5643   -1.4485    0.0000 Br      1  UNL1       -0.0466
      8 N           2.2632   -0.1801   -0.0000 N.am    1  UNL1       -0.2965
      9 C           3.6801    0.1122   -0.0001 C.3     1  UNL1       -0.2529
     10 H           1.9632   -1.1390   -0.0001 H       1  UNL1        0.2658
     11 H           4.2263   -0.8272    0.0007 H       1  UNL1        0.1509
     12 H           3.9569    0.6857   -0.8855 H       1  UNL1        0.1417
     13 H           3.9567    0.6869    0.8847 H       1  UNL1        0.1417
@<TRIPOS>BOND
     1    12     9    1
     2    10     8    1
     3     9     8    1
     4     9    11    1
     5     9    13    1
     6     5     4    1
     7     8     2   am
     8     6     4    1
     9     4     1    2
    10     1     7    1
    11     1     2    1
    12     2     3    2
