@<TRIPOS>MOLECULE
GS-84-0.out
 35 36 0 0 0
SMALL
MULLIKEN_CHARGES
****
Gaussian 16 # wB97XD def2tzvp, opt=(calcfc, maxcycles=70, maxstep=10), freq=norama
@<TRIPOS>ATOM
      1 C          -0.8281   -0.6197    0.0843 C.2     1  UNL1        0.0153
      2 C          -2.2409   -1.0929    0.1814 C.2     1  UNL1        0.3531
      3 O          -2.6357   -2.0008    0.8742 O.2     1  UNL1       -0.4213
      4 C           0.1948   -1.4894    0.0718 C.2     1  UNL1        0.0591
      5 C           1.6020   -1.0010    0.0765 C.ar    1  UNL1        0.1455
      6 C           2.0751   -0.2323    1.1372 C.ar    1  UNL1       -0.2115
      7 C           3.3868    0.2148    1.1548 C.ar    1  UNL1       -0.1551
      8 C           4.2426   -0.0943    0.1070 C.ar    1  UNL1       -0.1321
      9 C           3.7812   -0.8634   -0.9518 C.ar    1  UNL1       -0.1521
     10 C           2.4732   -1.3229   -0.9610 C.ar    1  UNL1       -0.2428
     11 H           1.4067    0.0185    1.9513 H       1  UNL1        0.1556
     12 H           3.7403    0.8085    1.9884 H       1  UNL1        0.1427
     13 H           5.2653    0.2603    0.1167 H       1  UNL1        0.1453
     14 H           4.4416   -1.1077   -1.7742 H       1  UNL1        0.1435
     15 H           2.1215   -1.9180   -1.7952 H       1  UNL1        0.1529
     16 C           0.0568   -2.9835    0.0636 C.3     1  UNL1       -0.3470
     17 H           0.7287   -3.4086   -0.6841 H       1  UNL1        0.1385
     18 H           0.3713   -3.3843    1.0309 H       1  UNL1        0.1461
     19 H          -0.9558   -3.3201   -0.1336 H       1  UNL1        0.1374
     20 C          -0.6455    0.8558   -0.0123 C.ar    1  UNL1        0.1671
     21 C          -0.0072    1.4301   -1.1078 C.ar    1  UNL1       -0.2347
     22 C           0.1697    2.8031   -1.1827 C.ar    1  UNL1       -0.1595
     23 C          -0.2940    3.6224   -0.1632 C.ar    1  UNL1       -0.1298
     24 C          -0.9422    3.0602    0.9278 C.ar    1  UNL1       -0.1500
     25 C          -1.1201    1.6873    0.9989 C.ar    1  UNL1       -0.2350
     26 H           0.3574    0.7934   -1.9041 H       1  UNL1        0.1522
     27 H           0.6698    3.2340   -2.0409 H       1  UNL1        0.1411
     28 H          -0.1542    4.6945   -0.2199 H       1  UNL1        0.1444
     29 H          -1.3087    3.6920    1.7270 H       1  UNL1        0.1423
     30 H          -1.6232    1.2545    1.8560 H       1  UNL1        0.1431
     31 O          -3.0512   -0.3681   -0.5913 O.3     1  UNL1       -0.2730
     32 C          -4.4392   -0.6999   -0.5481 C.3     1  UNL1       -0.2078
     33 H          -4.9294   -0.0032   -1.2215 H       1  UNL1        0.1473
     34 H          -4.5983   -1.7245   -0.8824 H       1  UNL1        0.1392
     35 H          -4.8266   -0.5843    0.4637 H       1  UNL1        0.1399
@<TRIPOS>BOND
     1    27    22    1
     2    26    21    1
     3    15    10    1
     4    14     9    1
     5    33    32    1
     6    22    21   ar
     7    22    23   ar
     8    21    20   ar
     9    10     9   ar
    10    10     5   ar
    11     9     8   ar
    12    34    32    1
    13    17    16    1
    14    31    32    1
    15    31     2    1
    16    32    35    1
    17    28    23    1
    18    23    24   ar
    19    19    16    1
    20    20     1    1
    21    20    25   ar
    22    16     4    1
    23    16    18    1
    24     4     5    1
    25     4     1    2
    26     5     6   ar
    27     1     2    1
    28     8    13    1
    29     8     7   ar
    30     2     3    2
    31    24    25   ar
    32    24    29    1
    33    25    30    1
    34     6     7   ar
    35     6    11    1
    36     7    12    1
