@<TRIPOS>MOLECULE
GS-847-1.out
 30 31 0 0 0
SMALL
MULLIKEN_CHARGES
****
Gaussian 16 # wB97XD def2tzvp, opt=(calcfc, maxcycles=70, maxstep=1), freq=noraman
@<TRIPOS>ATOM
      1 C           1.2104   -0.9797   -0.0013 C.2     1  UNL1       -0.0841
      2 C          -0.2713   -1.2618   -0.0023 C.2     1  UNL1        0.4251
      3 O          -0.7132   -2.3986   -0.0058 O.2     1  UNL1       -0.4836
      4 C           2.0002   -2.0467    0.0002 C.2     1  UNL1       -0.0128
      5 CL          3.7167   -1.9683    0.0009 Cl      1  UNL1       -0.0629
      6 H           1.6029   -3.0512    0.0006 H       1  UNL1        0.1836
      7 C           1.7170    0.4171   -0.0015 C.ar    1  UNL1       -0.0192
      8 C           1.9366    1.0851   -1.2036 C.ar    1  UNL1       -0.1812
      9 C           2.3950    2.3937   -1.2026 C.ar    1  UNL1       -0.1494
     10 C           2.6352    3.0460   -0.0017 C.ar    1  UNL1       -0.1089
     11 C           2.4162    2.3865    1.1992 C.ar    1  UNL1       -0.1499
     12 C           1.9578    1.0779    1.2005 C.ar    1  UNL1       -0.1800
     13 H           1.7472    0.5752   -2.1401 H       1  UNL1        0.1487
     14 H           2.5648    2.9039   -2.1420 H       1  UNL1        0.1478
     15 H           2.9920    4.0680   -0.0018 H       1  UNL1        0.1497
     16 H           2.6024    2.8912    2.1385 H       1  UNL1        0.1478
     17 H           1.7849    0.5624    2.1372 H       1  UNL1        0.1486
     18 N          -1.0392   -0.1430    0.0014 N.am    1  UNL1       -0.2435
     19 C          -2.4384   -0.0219    0.0018 C.ar    1  UNL1        0.2928
     20 C          -2.9551    1.2749    0.0057 C.ar    1  UNL1       -0.3061
     21 C          -4.3217    1.4840    0.0063 C.ar    1  UNL1       -0.0997
     22 C          -5.1958    0.4049    0.0031 C.ar    1  UNL1       -0.1832
     23 C          -4.6811   -0.8813   -0.0007 C.ar    1  UNL1       -0.1121
     24 C          -3.3113   -1.1076   -0.0014 C.ar    1  UNL1       -0.2851
     25 H          -0.5380    0.7315    0.0043 H       1  UNL1        0.2678
     26 H          -2.2786    2.1218    0.0082 H       1  UNL1        0.1478
     27 H          -4.7043    2.4966    0.0094 H       1  UNL1        0.1471
     28 H          -6.2657    0.5676    0.0036 H       1  UNL1        0.1444
     29 H          -5.3512   -1.7319   -0.0032 H       1  UNL1        0.1451
     30 H          -2.9205   -2.1116   -0.0044 H       1  UNL1        0.1658
@<TRIPOS>BOND
     1    14     9    1
     2    13     8    1
     3     8     9   ar
     4     8     7   ar
     5     9    10   ar
     6     3     2    2
     7    30    24    1
     8    29    23    1
     9     2     1    1
    10     2    18   am
    11    15    10    1
    12    10    11   ar
    13     7     1    1
    14     7    12   ar
    15    24    23   ar
    16    24    19   ar
    17     1     4    2
    18    23    22   ar
    19     4     6    1
    20     4     5    1
    21    18    19    1
    22    18    25    1
    23    19    20   ar
    24    22    28    1
    25    22    21   ar
    26    20    21   ar
    27    20    26    1
    28    21    27    1
    29    11    12   ar
    30    11    16    1
    31    12    17    1
