@<TRIPOS>MOLECULE
GS-850-0.out
 11 10 0 0 0
SMALL
MULLIKEN_CHARGES
****
Gaussian 16 # wB97XD def2tzvp, opt=(calcfc, maxcycles=70, maxstep=10), freq=norama
@<TRIPOS>ATOM
      1 C          -0.1589   -0.4173    0.0001 C.2     1  UNL1       -0.2638
      2 C          -1.5389    0.1393    0.0000 C.2     1  UNL1        0.3074
      3 O          -1.7514    1.3342    0.0000 O.2     1  UNL1       -0.4080
      4 C           0.8871    0.3954   -0.0001 C.2     1  UNL1       -0.0068
      5 CL          2.5133   -0.1583   -0.0000 Cl      1  UNL1       -0.0664
      6 H           0.7891    1.4725   -0.0002 H       1  UNL1        0.1865
      7 H          -0.0370   -1.4930    0.0002 H       1  UNL1        0.1746
      8 C          -2.6465   -0.8744   -0.0001 C.3     1  UNL1       -0.3752
      9 H          -2.5541   -1.5188    0.8774 H       1  UNL1        0.1565
     10 H          -3.6157   -0.3821    0.0000 H       1  UNL1        0.1388
     11 H          -2.5542   -1.5185   -0.8776 H       1  UNL1        0.1565
@<TRIPOS>BOND
     1    11     8    1
     2     6     4    1
     3     4     5    1
     4     4     1    2
     5     8    10    1
     6     8     2    1
     7     8     9    1
     8     2     3    2
     9     2     1    1
    10     1     7    1
