@<TRIPOS>MOLECULE
GS-826-0.out
 21 21 0 0 0
SMALL
MULLIKEN_CHARGES
****
Gaussian 16 # wB97XD def2tzvp, opt=(calcfc, maxcycles=70, maxstep=10), freq=norama
@<TRIPOS>ATOM
      1 C          -0.9231    0.2602    0.0661 C.2     1  UNL1       -0.0761
      2 C          -0.6312    1.7347    0.2124 C.2     1  UNL1        0.2398
      3 O          -1.2785    2.5370   -0.4156 O.2     1  UNL1       -0.3597
      4 C           0.0195   -0.6825   -0.0166 C.2     1  UNL1        0.0385
      5 CL         -0.3821   -2.3642   -0.1179 Cl      1  UNL1       -0.0544
      6 C           1.4662   -0.3911   -0.0867 C.ar    1  UNL1        0.2002
      7 C           2.3473   -0.9347    0.8465 C.ar    1  UNL1       -0.2034
      8 C           3.6935   -0.6226    0.7892 C.ar    1  UNL1       -0.1293
      9 C           4.1741    0.2175   -0.2082 C.ar    1  UNL1       -0.1343
     10 C           3.3045    0.7415   -1.1516 C.ar    1  UNL1       -0.1182
     11 C           1.9529    0.4378   -1.0931 C.ar    1  UNL1       -0.2628
     12 H           1.9731   -1.5876    1.6249 H       1  UNL1        0.1566
     13 H           4.3716   -1.0345    1.5251 H       1  UNL1        0.1514
     14 H           5.2287    0.4569   -0.2513 H       1  UNL1        0.1524
     15 H           3.6760    1.3861   -1.9373 H       1  UNL1        0.1522
     16 H           1.2727    0.8401   -1.8333 H       1  UNL1        0.1708
     17 BR         -2.7632   -0.1366   -0.0420 Br      1  UNL1       -0.0318
     18 C           0.4147    2.1817    1.2019 C.3     1  UNL1       -0.3778
     19 H          -0.0209    2.9881    1.7919 H       1  UNL1        0.1657
     20 H           0.7537    1.3838    1.8567 H       1  UNL1        0.1542
     21 H           1.2717    2.5870    0.6631 H       1  UNL1        0.1658
@<TRIPOS>BOND
     1    15    10    1
     2    16    11    1
     3    10    11   ar
     4    10     9   ar
     5    11     6   ar
     6     3     2    2
     7    14     9    1
     8     9     8   ar
     9     5     4    1
    10     6     4    1
    11     6     7   ar
    12    17     1    1
    13     4     1    2
    14     1     2    1
    15     2    18    1
    16    21    18    1
    17     8     7   ar
    18     8    13    1
    19     7    12    1
    20    18    19    1
    21    18    20    1
