@<TRIPOS>MOLECULE
GS-864-0.out
 21 21 0 0 0
SMALL
MULLIKEN_CHARGES
****
Gaussian 16 # wB97XD def2tzvp, opt=(calcfc, maxcycles=70, maxstep=10), freq=norama
@<TRIPOS>ATOM
      1 C          -1.3154    0.1383    0.3010 C.2     1  UNL1       -0.0532
      2 C          -0.1129    0.9887    0.0120 C.2     1  UNL1        0.2834
      3 O          -0.2235    2.1812   -0.1884 O.2     1  UNL1       -0.3877
      4 C          -2.3908    0.4110   -0.4289 C.2     1  UNL1       -0.0665
      5 CL         -3.8769   -0.4498   -0.2752 Cl      1  UNL1       -0.0827
      6 H          -2.4139    1.1845   -1.1822 H       1  UNL1        0.1852
      7 C          -1.2593   -0.9282    1.3558 C.3     1  UNL1       -0.4166
      8 H          -0.3297   -0.8802    1.9191 H       1  UNL1        0.1602
      9 H          -2.0896   -0.8053    2.0526 H       1  UNL1        0.1575
     10 H          -1.3429   -1.9267    0.9217 H       1  UNL1        0.1577
     11 C           1.2249    0.3294   -0.0330 C.ar    1  UNL1        0.0961
     12 C           2.3572    1.0811    0.2725 C.ar    1  UNL1       -0.2017
     13 C           3.6143    0.5068    0.2006 C.ar    1  UNL1       -0.1299
     14 C           3.7504   -0.8170   -0.1979 C.ar    1  UNL1       -0.1279
     15 C           2.6276   -1.5667   -0.5179 C.ar    1  UNL1       -0.1458
     16 C           1.3670   -0.9988   -0.4258 C.ar    1  UNL1       -0.2020
     17 H           2.2399    2.1146    0.5717 H       1  UNL1        0.1496
     18 H           4.4903    1.0906    0.4521 H       1  UNL1        0.1498
     19 H           4.7344   -1.2643   -0.2599 H       1  UNL1        0.1518
     20 H           2.7332   -2.5951   -0.8377 H       1  UNL1        0.1504
     21 H           0.4952   -1.5876   -0.6813 H       1  UNL1        0.1723
@<TRIPOS>BOND
     1     6     4    1
     2    20    15    1
     3    21    16    1
     4    15    16   ar
     5    15    14   ar
     6     4     5    1
     7     4     1    2
     8    16    11   ar
     9    19    14    1
    10    14    13   ar
    11     3     2    2
    12    11     2    1
    13    11    12   ar
    14     2     1    1
    15    13    12   ar
    16    13    18    1
    17    12    17    1
    18     1     7    1
    19    10     7    1
    20     7     8    1
    21     7     9    1
