@<TRIPOS>MOLECULE
GS-821-0.out
 26 26 0 0 0
SMALL
MULLIKEN_CHARGES
****
Gaussian 16 # wB97XD def2tzvp, opt=(calcfc, maxcycles=70, maxstep=10), freq=norama
@<TRIPOS>ATOM
      1 C           1.6290   -0.3752    0.0540 C.2     1  UNL1       -0.0100
      2 C           1.5668    1.1304    0.1298 C.2     1  UNL1        0.2756
      3 O           2.0760    1.7318    1.0676 O.2     1  UNL1       -0.4776
      4 C           0.4992   -1.0796    0.0250 C.2     1  UNL1        0.0510
      5 CL          0.5475   -2.8309   -0.0816 Cl      1  UNL1       -0.1104
      6 C          -0.8738   -0.5290    0.1054 C.ar    1  UNL1        0.0882
      7 C          -1.8156   -0.8123   -0.8816 C.ar    1  UNL1       -0.2044
      8 C          -3.0838   -0.2599   -0.8164 C.ar    1  UNL1       -0.1412
      9 C          -3.4297    0.5715    0.2407 C.ar    1  UNL1       -0.1343
     10 C          -2.5017    0.8453    1.2340 C.ar    1  UNL1       -0.1454
     11 C          -1.2302    0.2960    1.1690 C.ar    1  UNL1       -0.1907
     12 H          -1.5496   -1.4597   -1.7079 H       1  UNL1        0.1518
     13 H          -3.8043   -0.4775   -1.5943 H       1  UNL1        0.1472
     14 H          -4.4223    1.0003    0.2914 H       1  UNL1        0.1485
     15 H          -2.7674    1.4845    2.0662 H       1  UNL1        0.1476
     16 H          -0.5081    0.5066    1.9477 H       1  UNL1        0.1567
     17 C           3.0208   -0.9231    0.0689 C.3     1  UNL1       -0.3522
     18 H           3.5578   -0.5189    0.9285 H       1  UNL1        0.1463
     19 H           3.0335   -2.0081    0.1199 H       1  UNL1        0.1332
     20 H           3.5595   -0.6079   -0.8280 H       1  UNL1        0.1465
     21 N           0.9787    1.7486   -0.9030 N.am    1  UNL1       -0.2767
     22 C           0.7835    3.1810   -0.9305 C.3     1  UNL1       -0.2550
     23 H           0.5504    1.1857   -1.6163 H       1  UNL1        0.2788
     24 H           1.7339    3.6987   -0.8019 H       1  UNL1        0.1388
     25 H           0.3579    3.4557   -1.8921 H       1  UNL1        0.1494
     26 H           0.1052    3.4996   -0.1358 H       1  UNL1        0.1380
@<TRIPOS>BOND
     1    25    22    1
     2    12     7    1
     3    23    21    1
     4    13     8    1
     5    22    21    1
     6    22    24    1
     7    22    26    1
     8    21     2   am
     9     7     8   ar
    10     7     6   ar
    11    20    17    1
    12     8     9   ar
    13     5     4    1
    14     4     1    2
    15     4     6    1
    16     1    17    1
    17     1     2    1
    18    17    19    1
    19    17    18    1
    20     6    11   ar
    21     2     3    2
    22     9    14    1
    23     9    10   ar
    24    11    10   ar
    25    11    16    1
    26    10    15    1
