@<TRIPOS>MOLECULE
GS-802-1.out
 31 32 0 0 0
SMALL
MULLIKEN_CHARGES
****
Gaussian 16 # wB97XD def2tzvp, opt=(calcfc, maxcycles=70, maxstep=1), freq=noraman
@<TRIPOS>ATOM
      1 C          -0.4709    0.3419    0.0447 C.2     1  UNL1        0.0019
      2 C          -0.0697    1.8002    0.0933 C.2     1  UNL1        0.2071
      3 O          -0.4901    2.5579   -0.7507 O.2     1  UNL1       -0.3659
      4 C           0.4438   -0.6262    0.0031 C.2     1  UNL1        0.0751
      5 CL         -0.0588   -2.3010    0.0015 Cl      1  UNL1       -0.0877
      6 C           1.9053   -0.4292   -0.0776 C.ar    1  UNL1        0.0619
      7 C           2.7621   -1.0501    0.8303 C.ar    1  UNL1       -0.2018
      8 C           4.1237   -0.8107    0.7774 C.ar    1  UNL1       -0.1459
      9 C           4.6471    0.0380   -0.1906 C.ar    1  UNL1       -0.1237
     10 C           3.8029    0.6420   -1.1085 C.ar    1  UNL1       -0.1376
     11 C           2.4366    0.4081   -1.0551 C.ar    1  UNL1       -0.2087
     12 H           2.3570   -1.7097    1.5872 H       1  UNL1        0.1533
     13 H           4.7803   -1.2858    1.4947 H       1  UNL1        0.1491
     14 H           5.7131    0.2212   -0.2309 H       1  UNL1        0.1506
     15 H           4.2056    1.2935   -1.8731 H       1  UNL1        0.1495
     16 H           1.7799    0.8691   -1.7818 H       1  UNL1        0.1686
     17 C          -1.9378    0.1094    0.0051 C.ar    1  UNL1        0.1772
     18 C          -2.6991    0.2572    1.1604 C.ar    1  UNL1       -0.1990
     19 C          -4.0724    0.0656    1.1225 C.ar    1  UNL1       -0.1577
     20 C          -4.6961   -0.2655   -0.0716 C.ar    1  UNL1       -0.1284
     21 C          -3.9417   -0.4060   -1.2282 C.ar    1  UNL1       -0.1360
     22 C          -2.5686   -0.2188   -1.1910 C.ar    1  UNL1       -0.2508
     23 H          -2.2149    0.5137    2.0950 H       1  UNL1        0.1516
     24 H          -4.6551    0.1758    2.0282 H       1  UNL1        0.1453
     25 H          -5.7681   -0.4132   -0.1014 H       1  UNL1        0.1475
     26 H          -4.4234   -0.6623   -2.1632 H       1  UNL1        0.1455
     27 H          -1.9787   -0.3296   -2.0922 H       1  UNL1        0.1497
     28 C           0.7349    2.2769    1.2678 C.3     1  UNL1       -0.3561
     29 H           1.5282    1.5811    1.5333 H       1  UNL1        0.1617
     30 H           1.1403    3.2667    1.0696 H       1  UNL1        0.1423
     31 H           0.0547    2.3355    2.1230 H       1  UNL1        0.1612
@<TRIPOS>BOND
     1    26    21    1
     2    27    22    1
     3    15    10    1
     4    16    11    1
     5    21    22   ar
     6    21    20   ar
     7    22    17   ar
     8    10    11   ar
     9    10     9   ar
    10    11     6   ar
    11     3     2    2
    12    14     9    1
    13     9     8   ar
    14    25    20    1
    15     6     4    1
    16     6     7   ar
    17    20    19   ar
    18     5     4    1
    19     4     1    2
    20    17     1    1
    21    17    18   ar
    22     1     2    1
    23     2    28    1
    24     8     7   ar
    25     8    13    1
    26     7    12    1
    27    30    28    1
    28    19    18   ar
    29    19    24    1
    30    18    23    1
    31    28    29    1
    32    28    31    1
