@<TRIPOS>MOLECULE
GS-871-1.out
 20 20 0 0 0
SMALL
MULLIKEN_CHARGES
****
Gaussian 16 # opt=(calcall,maxcycles=100,maxstep=1) freq=noraman wb97xd scrf=(iefp
@<TRIPOS>ATOM
      1 C           1.3706    0.0988   -0.1381 C.2     1  UNL1       -0.1137
      2 C          -0.0250   -0.4496   -0.2946 C.2     1  UNL1        0.4218
      3 O          -0.2155   -1.5421   -0.7889 O.2     1  UNL1       -0.4429
      4 C           1.6678    1.3453   -0.4819 C.2     1  UNL1       -0.1065
      5 CL          3.2297    2.0416   -0.4255 Cl      1  UNL1       -0.0469
      6 H           0.9071    2.0170   -0.8555 H       1  UNL1        0.2109
      7 BR          2.6514   -1.1421    0.4456 Br      1  UNL1       -0.0130
      8 N          -0.9904    0.3906    0.1511 N.am    1  UNL1       -0.2898
      9 C          -2.3881    0.2266    0.0883 C.ar    1  UNL1        0.3172
     10 C          -3.1612    1.0886    0.8649 C.ar    1  UNL1       -0.2991
     11 C          -4.5413    1.0025    0.8385 C.ar    1  UNL1       -0.0957
     12 C          -5.1688    0.0559    0.0400 C.ar    1  UNL1       -0.1835
     13 C          -4.3973   -0.7974   -0.7325 C.ar    1  UNL1       -0.1034
     14 C          -3.0115   -0.7215   -0.7181 C.ar    1  UNL1       -0.2893
     15 H          -0.6758    1.1915    0.6739 H       1  UNL1        0.2806
     16 H          -2.6775    1.8287    1.4915 H       1  UNL1        0.1487
     17 H          -5.1276    1.6786    1.4473 H       1  UNL1        0.1485
     18 H          -6.2485   -0.0135    0.0205 H       1  UNL1        0.1456
     19 H          -4.8744   -1.5375   -1.3624 H       1  UNL1        0.1471
     20 H          -2.4214   -1.3908   -1.3225 H       1  UNL1        0.1635
@<TRIPOS>BOND
     1    19    13    1
     2    20    14    1
     3     6     4    1
     4     3     2    2
     5    13    14   ar
     6    13    12   ar
     7    14     9   ar
     8     4     5    1
     9     4     1    2
    10     2     1    1
    11     2     8   am
    12     1     7    1
    13    18    12    1
    14    12    11   ar
    15     9     8    1
    16     9    10   ar
    17     8    15    1
    18    11    10   ar
    19    11    17    1
    20    10    16    1
