@<TRIPOS>MOLECULE
GS-836-0.out
 22 22 0 0 0
SMALL
MULLIKEN_CHARGES
****
Gaussian 16 # wB97XD def2tzvp, opt=(calcfc, maxcycles=70, maxstep=10), freq=norama
@<TRIPOS>ATOM
      1 C           1.4101   -0.0476    0.0172 C.2     1  UNL1        0.0056
      2 C           1.1700    1.4340    0.0511 C.2     1  UNL1        0.3279
      3 O           1.7246    2.1723    0.8219 O.2     1  UNL1       -0.3842
      4 C           0.4281   -0.9512    0.0058 C.2     1  UNL1        0.0306
      5 CL          0.7919   -2.6422   -0.0591 Cl      1  UNL1       -0.0568
      6 C          -1.0094   -0.6197    0.0959 C.ar    1  UNL1        0.2270
      7 C          -1.9047   -1.0816   -0.8656 C.ar    1  UNL1       -0.2314
      8 C          -3.2442   -0.7431   -0.7840 C.ar    1  UNL1       -0.1323
      9 C          -3.7030    0.0463    0.2628 C.ar    1  UNL1       -0.1415
     10 C          -2.8175    0.4933    1.2314 C.ar    1  UNL1       -0.1229
     11 C          -1.4745    0.1595    1.1513 C.ar    1  UNL1       -0.2422
     12 H          -1.5492   -1.6956   -1.6832 H       1  UNL1        0.1560
     13 H          -3.9331   -1.0953   -1.5407 H       1  UNL1        0.1499
     14 H          -4.7516    0.3069    0.3250 H       1  UNL1        0.1509
     15 H          -3.1710    1.0988    2.0557 H       1  UNL1        0.1512
     16 H          -0.7855    0.4988    1.9150 H       1  UNL1        0.1678
     17 CL          3.0791   -0.4694    0.0650 Cl      1  UNL1       -0.0553
     18 O           0.3071    1.8146   -0.8748 O.3     1  UNL1       -0.2540
     19 C          -0.0767    3.1947   -0.8584 C.3     1  UNL1       -0.1981
     20 H          -0.7896    3.3076   -1.6687 H       1  UNL1        0.1543
     21 H          -0.5416    3.4402    0.0957 H       1  UNL1        0.1481
     22 H           0.7916    3.8311   -1.0209 H       1  UNL1        0.1494
@<TRIPOS>BOND
     1    12     7    1
     2    20    19    1
     3    13     8    1
     4    22    19    1
     5    18    19    1
     6    18     2    1
     7     7     8   ar
     8     7     6   ar
     9    19    21    1
    10     8     9   ar
    11     5     4    1
    12     4     1    2
    13     4     6    1
    14     1     2    1
    15     1    17    1
    16     2     3    2
    17     6    11   ar
    18     9    14    1
    19     9    10   ar
    20    11    10   ar
    21    11    16    1
    22    10    15    1
