@<TRIPOS>MOLECULE
GS-8-0.out
 48 51 0 0 0
SMALL
MULLIKEN_CHARGES
****
Gaussian 16 # wb97xd def2tzvp opt=(calcfc, maxcycles=100, maxstep=10) freq=noraman
@<TRIPOS>ATOM
      1 C          -0.1293   -0.2329   -0.4608 C.2     1  UNL1        0.1220
      2 C          -1.3659    0.4657   -0.9681 C.2     1  UNL1        0.1826
      3 O          -1.3524    1.0386   -2.0376 O.2     1  UNL1       -0.3753
      4 C           0.9878    0.4522   -0.1730 C.2     1  UNL1        0.3136
      5 C           2.2802   -0.2178    0.1296 C.ar    1  UNL1        0.0218
      6 C           2.8166   -1.1646   -0.7395 C.ar    1  UNL1       -0.2157
      7 C           4.0273   -1.7761   -0.4548 C.ar    1  UNL1       -0.1550
      8 C           4.7156   -1.4524    0.7059 C.ar    1  UNL1       -0.1214
      9 C           4.1937   -0.5022    1.5729 C.ar    1  UNL1       -0.1575
     10 C           2.9901    0.1191    1.2800 C.ar    1  UNL1       -0.2226
     11 H           2.2800   -1.4209   -1.6441 H       1  UNL1        0.1557
     12 H           4.4347   -2.5065   -1.1423 H       1  UNL1        0.1417
     13 H           5.6590   -1.9336    0.9307 H       1  UNL1        0.1454
     14 H           4.7274   -0.2414    2.4780 H       1  UNL1        0.1423
     15 H           2.5901    0.8664    1.9547 H       1  UNL1        0.1531
     16 C           1.0137    1.9384   -0.1429 C.ar    1  UNL1        0.1006
     17 C           0.0935    2.6633    0.6096 C.ar    1  UNL1       -0.2292
     18 C           0.1279    4.0501    0.6239 C.ar    1  UNL1       -0.1623
     19 C           1.0856    4.7299   -0.1127 C.ar    1  UNL1       -0.1303
     20 C           2.0175    4.0152   -0.8547 C.ar    1  UNL1       -0.1515
     21 C           1.9882    2.6310   -0.8606 C.ar    1  UNL1       -0.2447
     22 H          -0.6469    2.1397    1.2012 H       1  UNL1        0.1747
     23 H          -0.5924    4.5983    1.2177 H       1  UNL1        0.1414
     24 H           1.1128    5.8120   -0.1030 H       1  UNL1        0.1455
     25 H           2.7712    4.5393   -1.4287 H       1  UNL1        0.1429
     26 H           2.7214    2.0779   -1.4351 H       1  UNL1        0.1534
     27 C          -0.2674   -1.7099   -0.3750 C.ar    1  UNL1        0.0679
     28 C           0.1186   -2.4093    0.7678 C.ar    1  UNL1       -0.2511
     29 C          -0.0360   -3.7830    0.8394 C.ar    1  UNL1       -0.1429
     30 C          -0.5834   -4.4814   -0.2292 C.ar    1  UNL1       -0.1237
     31 C          -0.9819   -3.7942   -1.3656 C.ar    1  UNL1       -0.1632
     32 C          -0.8308   -2.4173   -1.4349 C.ar    1  UNL1       -0.2180
     33 H           0.5412   -1.8692    1.6055 H       1  UNL1        0.1676
     34 H           0.2681   -4.3109    1.7344 H       1  UNL1        0.1424
     35 H          -0.7035   -5.5557   -0.1724 H       1  UNL1        0.1458
     36 H          -1.4127   -4.3296   -2.2021 H       1  UNL1        0.1430
     37 H          -1.1420   -1.8895   -2.3288 H       1  UNL1        0.1523
     38 C          -2.6128    0.3711   -0.1560 C.ar    1  UNL1        0.0602
     39 C          -3.8332    0.6910   -0.7468 C.ar    1  UNL1       -0.2238
     40 C          -5.0012    0.6333   -0.0074 C.ar    1  UNL1       -0.1278
     41 C          -4.9572    0.2651    1.3317 C.ar    1  UNL1       -0.1235
     42 C          -3.7442   -0.0480    1.9288 C.ar    1  UNL1       -0.1631
     43 C          -2.5762   -0.0010    1.1855 C.ar    1  UNL1       -0.1938
     44 H          -3.8532    0.9802   -1.7893 H       1  UNL1        0.1460
     45 H          -5.9481    0.8755   -0.4722 H       1  UNL1        0.1491
     46 H          -5.8710    0.2227    1.9107 H       1  UNL1        0.1511
     47 H          -3.7086   -0.3301    2.9728 H       1  UNL1        0.1479
     48 H          -1.6316   -0.2446    1.6550 H       1  UNL1        0.1864
@<TRIPOS>BOND
     1    37    32    1
     2    36    31    1
     3     3     2    2
     4    44    39    1
     5    11     6    1
     6    26    21    1
     7    32    31   ar
     8    32    27   ar
     9    25    20    1
    10    31    30   ar
    11    12     7    1
    12     2     1    1
    13     2    38    1
    14    21    20   ar
    15    21    16   ar
    16    20    19   ar
    17    39    38   ar
    18    39    40   ar
    19     6     7   ar
    20     6     5   ar
    21    45    40    1
    22     1    27    1
    23     1     4    2
    24     7     8   ar
    25    27    28   ar
    26    30    35    1
    27    30    29   ar
    28     4    16    1
    29     4     5    1
    30    38    43   ar
    31    16    17   ar
    32    19    24    1
    33    19    18   ar
    34    40    41   ar
    35     5    10   ar
    36    17    18   ar
    37    17    22    1
    38    18    23    1
    39     8    13    1
    40     8     9   ar
    41    28    29   ar
    42    28    33    1
    43    29    34    1
    44    43    48    1
    45    43    42   ar
    46    10     9   ar
    47    10    15    1
    48    41    46    1
    49    41    42   ar
    50     9    14    1
    51    42    47    1
