@<TRIPOS>MOLECULE
GS-842-1.out
 21 21 0 0 0
SMALL
MULLIKEN_CHARGES
****
Gaussian 16 # wB97XD def2tzvp, opt=(calcfc, maxcycles=70, maxstep=1), freq=noraman
@<TRIPOS>ATOM
      1 C          -1.0007   -0.1024    0.0005 C.2     1  UNL1       -0.1210
      2 C          -1.7721   -1.3964   -0.0080 C.2     1  UNL1        0.2819
      3 O          -2.9844   -1.4070    0.0040 O.2     1  UNL1       -0.4011
      4 C          -1.7203    1.0154    0.0050 C.2     1  UNL1       -0.0104
      5 CL         -1.0475    2.5948    0.0149 Cl      1  UNL1       -0.0594
      6 H          -2.8008    0.9983    0.0032 H       1  UNL1        0.1817
      7 C           0.4848   -0.1196    0.0008 C.ar    1  UNL1        0.1110
      8 C           1.1873   -0.1683    1.2011 C.ar    1  UNL1       -0.2061
      9 C           2.5737   -0.1945    1.2010 C.ar    1  UNL1       -0.1416
     10 C           3.2702   -0.1732    0.0011 C.ar    1  UNL1       -0.1288
     11 C           2.5753   -0.1240   -1.1989 C.ar    1  UNL1       -0.1414
     12 C           1.1889   -0.0977   -1.1994 C.ar    1  UNL1       -0.2042
     13 H           0.6439   -0.1855    2.1382 H       1  UNL1        0.1499
     14 H           3.1104   -0.2309    2.1405 H       1  UNL1        0.1459
     15 H           4.3525   -0.1941    0.0012 H       1  UNL1        0.1477
     16 H           3.1133   -0.1054   -2.1382 H       1  UNL1        0.1459
     17 H           0.6466   -0.0598   -2.1364 H       1  UNL1        0.1493
     18 C          -0.9713   -2.6660   -0.0328 C.3     1  UNL1       -0.3533
     19 H          -0.3184   -2.7133    0.8411 H       1  UNL1        0.1562
     20 H          -1.6397   -3.5229   -0.0465 H       1  UNL1        0.1422
     21 H          -0.3211   -2.6820   -0.9099 H       1  UNL1        0.1557
@<TRIPOS>BOND
     1    16    11    1
     2    17    12    1
     3    12    11   ar
     4    12     7   ar
     5    11    10   ar
     6    21    18    1
     7    20    18    1
     8    18     2    1
     9    18    19    1
    10     2     1    1
    11     2     3    2
    12     1     7    1
    13     1     4    2
    14     7     8   ar
    15    10    15    1
    16    10     9   ar
    17     6     4    1
    18     4     5    1
    19     9     8   ar
    20     9    14    1
    21     8    13    1
