@<TRIPOS>MOLECULE
GS-835-0.out
 20 20 0 0 0
SMALL
MULLIKEN_CHARGES
****
Gaussian 16 # wB97XD def2tzvp, opt=(calcfc, maxcycles=70, maxstep=10), freq=norama
@<TRIPOS>ATOM
      1 C           1.3765   -0.1280   -0.0899 C.2     1  UNL1       -0.0208
      2 C           1.1578   -1.5934   -0.4027 C.2     1  UNL1        0.2564
      3 O           0.5090   -1.9364   -1.3736 O.2     1  UNL1       -0.4275
      4 C           0.3676    0.7287    0.0575 C.2     1  UNL1        0.0153
      5 CL          0.6658    2.4216    0.2784 Cl      1  UNL1       -0.0654
      6 C          -1.0561    0.3300    0.0787 C.ar    1  UNL1        0.2276
      7 C          -1.4950   -0.6236    0.9921 C.ar    1  UNL1       -0.2123
      8 C          -2.8257   -1.0122    1.0081 C.ar    1  UNL1       -0.1337
      9 C          -3.7252   -0.4478    0.1168 C.ar    1  UNL1       -0.1425
     10 C          -3.2926    0.5125   -0.7888 C.ar    1  UNL1       -0.1312
     11 C          -1.9656    0.9055   -0.8054 C.ar    1  UNL1       -0.2273
     12 H          -0.7945   -1.0577    1.6945 H       1  UNL1        0.1624
     13 H          -3.1593   -1.7531    1.7230 H       1  UNL1        0.1494
     14 H          -4.7643   -0.7508    0.1297 H       1  UNL1        0.1500
     15 H          -3.9921    0.9560   -1.4854 H       1  UNL1        0.1493
     16 H          -1.6306    1.6543   -1.5120 H       1  UNL1        0.1549
     17 CL          3.0346    0.3508    0.0027 Cl      1  UNL1       -0.0589
     18 N           1.7383   -2.4494    0.4499 N.am    1  UNL1       -0.4332
     19 H           1.6739   -3.4372    0.2729 H       1  UNL1        0.2899
     20 H           2.2720   -2.1354    1.2405 H       1  UNL1        0.2977
@<TRIPOS>BOND
     1    16    11    1
     2    15    10    1
     3     3     2    2
     4    11    10   ar
     5    11     6   ar
     6    10     9   ar
     7     2     1    1
     8     2    18   am
     9     1    17    1
    10     1     4    2
    11     4     6    1
    12     4     5    1
    13     6     7   ar
    14     9    14    1
    15     9     8   ar
    16    19    18    1
    17    18    20    1
    18     7     8   ar
    19     7    12    1
    20     8    13    1
