@<TRIPOS>MOLECULE
GS-882-0.out
 24 24 0 0 0
SMALL
MULLIKEN_CHARGES
****
Gaussian 16 # wB97XD def2tzvp, opt=(calcfc, maxcycles=70, maxstep=10), freq=norama
@<TRIPOS>ATOM
      1 C           0.7597    0.2811   -0.0215 C.2     1  UNL1       -0.1229
      2 C           1.2492    1.7012   -0.0020 C.2     1  UNL1        0.2661
      3 O           2.2776    2.0402   -0.5476 O.2     1  UNL1       -0.3951
      4 C           1.6232   -0.7395    0.0001 C.2     1  UNL1        0.1046
      5 CL          0.9995   -2.3732   -0.0589 Cl      1  UNL1       -0.0942
      6 C           3.1107   -0.7112    0.0878 C.3     1  UNL1       -0.3586
      7 H           3.4755    0.2867    0.3073 H       1  UNL1        0.1457
      8 H           3.4442   -1.4072    0.8581 H       1  UNL1        0.1449
      9 H           3.5435   -1.0362   -0.8606 H       1  UNL1        0.1542
     10 C          -0.7183    0.0945   -0.0360 C.ar    1  UNL1        0.1543
     11 C          -1.4072   -0.2503    1.1231 C.ar    1  UNL1       -0.2141
     12 C          -2.7862   -0.3889    1.1049 C.ar    1  UNL1       -0.1408
     13 C          -3.4914   -0.1837   -0.0729 C.ar    1  UNL1       -0.1301
     14 C          -2.8115    0.1620   -1.2316 C.ar    1  UNL1       -0.1442
     15 C          -1.4318    0.3041   -1.2120 C.ar    1  UNL1       -0.1971
     16 H          -0.8571   -0.4109    2.0424 H       1  UNL1        0.1537
     17 H          -3.3113   -0.6575    2.0127 H       1  UNL1        0.1454
     18 H          -4.5685   -0.2922   -0.0869 H       1  UNL1        0.1474
     19 H          -3.3554    0.3231   -2.1538 H       1  UNL1        0.1454
     20 H          -0.9029    0.5774   -2.1173 H       1  UNL1        0.1463
     21 C           0.3802    2.6998    0.7144 C.3     1  UNL1       -0.3682
     22 H           0.0833    2.3231    1.6944 H       1  UNL1        0.1542
     23 H           0.9153    3.6409    0.8144 H       1  UNL1        0.1442
     24 H          -0.5373    2.8626    0.1451 H       1  UNL1        0.1587
@<TRIPOS>BOND
     1    19    14    1
     2    20    15    1
     3    14    15   ar
     4    14    13   ar
     5    15    10   ar
     6     9     6    1
     7     3     2    2
     8    18    13    1
     9    13    12   ar
    10     5     4    1
    11    10     1    1
    12    10    11   ar
    13     1     2    1
    14     1     4    2
    15     2    21    1
    16     4     6    1
    17     6     7    1
    18     6     8    1
    19    24    21    1
    20    21    23    1
    21    21    22    1
    22    12    11   ar
    23    12    17    1
    24    11    16    1
