@<TRIPOS>MOLECULE
GS-830-1.out
 26 26 0 0 0
SMALL
MULLIKEN_CHARGES
****
Gaussian 16 # wB97XD def2tzvp, opt=(calcfc, maxcycles=70, maxstep=1), freq=noraman
@<TRIPOS>ATOM
      1 C          -0.9506   -0.0250   -0.1523 C.2     1  UNL1       -0.0803
      2 C          -0.5835    1.4186   -0.4011 C.2     1  UNL1        0.2274
      3 O          -0.8494    1.9083   -1.4918 O.2     1  UNL1       -0.4640
      4 C          -0.0549   -1.0072   -0.0919 C.2     1  UNL1        0.0266
      5 CL         -0.5380   -2.6595    0.1253 Cl      1  UNL1       -0.0673
      6 C           1.4061   -0.7836   -0.1788 C.ar    1  UNL1        0.2192
      7 C           2.2491   -1.2725    0.8180 C.ar    1  UNL1       -0.2646
      8 C           3.6098   -1.0264    0.7610 C.ar    1  UNL1       -0.1163
      9 C           4.1438   -0.2996   -0.2951 C.ar    1  UNL1       -0.1381
     10 C           3.3115    0.1765   -1.2962 C.ar    1  UNL1       -0.1365
     11 C           1.9472   -0.0656   -1.2417 C.ar    1  UNL1       -0.2104
     12 H           1.8355   -1.8368    1.6440 H       1  UNL1        0.1549
     13 H           4.2554   -1.4012    1.5445 H       1  UNL1        0.1493
     14 H           5.2086   -0.1100   -0.3386 H       1  UNL1        0.1501
     15 H           3.7229    0.7341   -2.1274 H       1  UNL1        0.1494
     16 H           1.3006    0.3003   -2.0284 H       1  UNL1        0.1576
     17 BR         -2.8108   -0.3018   -0.0617 Br      1  UNL1       -0.0211
     18 N           0.0136    2.0848    0.5987 N.am    1  UNL1       -0.0748
     19 C           0.4960    3.4337    0.3712 C.3     1  UNL1       -0.2809
     20 C           0.2663    1.5543    1.9247 C.3     1  UNL1       -0.3184
     21 H           0.3788    3.6893   -0.6766 H       1  UNL1        0.1540
     22 H          -0.0640    4.1438    0.9831 H       1  UNL1        0.1504
     23 H           1.5509    3.4904    0.6459 H       1  UNL1        0.1438
     24 H          -0.3102    0.6520    2.1022 H       1  UNL1        0.1720
     25 H           1.3280    1.3303    2.0524 H       1  UNL1        0.1602
     26 H          -0.0254    2.3013    2.6637 H       1  UNL1        0.1578
@<TRIPOS>BOND
     1    15    10    1
     2    16    11    1
     3     3     2    2
     4    10    11   ar
     5    10     9   ar
     6    11     6   ar
     7    21    19    1
     8     2     1    1
     9     2    18   am
    10    14     9    1
    11     9     8   ar
    12     6     4    1
    13     6     7   ar
    14     1     4    2
    15     1    17    1
    16     4     5    1
    17    19    18    1
    18    19    23    1
    19    19    22    1
    20    18    20    1
    21     8     7   ar
    22     8    13    1
    23     7    12    1
    24    20    25    1
    25    20    24    1
    26    20    26    1
