@<TRIPOS>MOLECULE
GS-803-0.out
 30 31 0 0 0
SMALL
MULLIKEN_CHARGES
****
Gaussian 16 # wB97XD def2tzvp, opt=(calcfc, maxcycles=70, maxstep=10), freq=norama
@<TRIPOS>ATOM
      1 C          -0.4639    0.3180   -0.0823 C.2     1  UNL1        0.0209
      2 C          -0.0505    1.7648   -0.2531 C.2     1  UNL1        0.2316
      3 O           0.6170    2.1437   -1.2012 O.2     1  UNL1       -0.4407
      4 C           0.4762   -0.6248   -0.0291 C.2     1  UNL1        0.0443
      5 CL          0.0300   -2.3153   -0.0215 Cl      1  UNL1       -0.0879
      6 C           1.9341   -0.3881    0.0361 C.ar    1  UNL1        0.1821
      7 C           2.4578    0.4164    1.0440 C.ar    1  UNL1       -0.2086
      8 C           3.8209    0.6628    1.1047 C.ar    1  UNL1       -0.1452
      9 C           4.6708    0.1050    0.1619 C.ar    1  UNL1       -0.1329
     10 C           4.1541   -0.7071   -0.8396 C.ar    1  UNL1       -0.1406
     11 C           2.7942   -0.9592   -0.8990 C.ar    1  UNL1       -0.2401
     12 H           1.7952    0.8470    1.7843 H       1  UNL1        0.1589
     13 H           4.2183    1.2879    1.8939 H       1  UNL1        0.1471
     14 H           5.7350    0.2973    0.2087 H       1  UNL1        0.1486
     15 H           4.8138   -1.1452   -1.5775 H       1  UNL1        0.1471
     16 H           2.3949   -1.5940   -1.6799 H       1  UNL1        0.1522
     17 C          -1.9269    0.0740   -0.0303 C.ar    1  UNL1        0.1022
     18 C          -2.5179   -0.5081    1.0880 C.ar    1  UNL1       -0.2313
     19 C          -3.8903   -0.6980    1.1362 C.ar    1  UNL1       -0.1286
     20 C          -4.6857   -0.3089    0.0680 C.ar    1  UNL1       -0.1339
     21 C          -4.1042    0.2786   -1.0468 C.ar    1  UNL1       -0.1471
     22 C          -2.7332    0.4758   -1.0930 C.ar    1  UNL1       -0.2062
     23 H          -1.8989   -0.8099    1.9236 H       1  UNL1        0.1595
     24 H          -4.3388   -1.1499    2.0117 H       1  UNL1        0.1466
     25 H          -5.7570   -0.4594    0.1056 H       1  UNL1        0.1484
     26 H          -4.7195    0.5865   -1.8825 H       1  UNL1        0.1467
     27 H          -2.2826    0.9390   -1.9628 H       1  UNL1        0.1500
     28 N          -0.5150    2.5944    0.6965 N.am    1  UNL1       -0.4189
     29 H          -0.3320    3.5805    0.6248 H       1  UNL1        0.2817
     30 H          -1.0809    2.2628    1.4569 H       1  UNL1        0.2942
@<TRIPOS>BOND
     1    27    22    1
     2    26    21    1
     3    16    11    1
     4    15    10    1
     5     3     2    2
     6    22    21   ar
     7    22    17   ar
     8    21    20   ar
     9    11    10   ar
    10    11     6   ar
    11    10     9   ar
    12     2     1    1
    13     2    28   am
    14     1    17    1
    15     1     4    2
    16    17    18   ar
    17     4     5    1
    18     4     6    1
    19     6     7   ar
    20    20    25    1
    21    20    19   ar
    22     9    14    1
    23     9     8   ar
    24    29    28    1
    25    28    30    1
    26     7     8   ar
    27     7    12    1
    28    18    19   ar
    29    18    23    1
    30     8    13    1
    31    19    24    1
