@<TRIPOS>MOLECULE
GS-839-1.out
 30 31 0 0 0
SMALL
MULLIKEN_CHARGES
****
Gaussian 16 # wB97XD def2tzvp, opt=(calcfc, maxcycles=70, maxstep=1), freq=noraman
@<TRIPOS>ATOM
      1 C          -0.8686   -1.3547    0.2051 C.2     1  UNL1       -0.0707
      2 C           0.3567   -0.5778    0.6390 C.2     1  UNL1        0.3608
      3 O           0.3442    0.0812    1.6588 O.2     1  UNL1       -0.4299
      4 C          -2.0217   -0.7556   -0.0842 C.2     1  UNL1        0.0389
      5 CL         -3.4433   -1.6833   -0.4282 Cl      1  UNL1       -0.0640
      6 C          -2.1841    0.7126   -0.1528 C.ar    1  UNL1        0.1854
      7 C          -1.3569    1.4652   -0.9812 C.ar    1  UNL1       -0.2051
      8 C          -1.4880    2.8446   -1.0298 C.ar    1  UNL1       -0.1455
      9 C          -2.4485    3.4789   -0.2573 C.ar    1  UNL1       -0.1312
     10 C          -3.2841    2.7297    0.5612 C.ar    1  UNL1       -0.1423
     11 C          -3.1579    1.3523    0.6108 C.ar    1  UNL1       -0.2178
     12 H          -0.6152    0.9706   -1.5955 H       1  UNL1        0.1666
     13 H          -0.8416    3.4217   -1.6781 H       1  UNL1        0.1495
     14 H          -2.5513    4.5557   -0.2958 H       1  UNL1        0.1503
     15 H          -4.0364    3.2212    1.1645 H       1  UNL1        0.1493
     16 H          -3.8096    0.7707    1.2503 H       1  UNL1        0.1557
     17 CL         -0.6626   -3.0697    0.1946 Cl      1  UNL1       -0.0532
     18 N           1.4104   -0.7199   -0.1973 N.am    1  UNL1       -0.2632
     19 C           2.7043   -0.1755   -0.0944 C.ar    1  UNL1        0.3127
     20 C           3.5915   -0.4623   -1.1319 C.ar    1  UNL1       -0.2984
     21 C           4.8816    0.0344   -1.1041 C.ar    1  UNL1       -0.0982
     22 C           5.3060    0.8237   -0.0434 C.ar    1  UNL1       -0.1812
     23 C           4.4219    1.1074    0.9847 C.ar    1  UNL1       -0.1110
     24 C           3.1234    0.6165    0.9713 C.ar    1  UNL1       -0.2888
     25 H           1.2509   -1.2893   -1.0134 H       1  UNL1        0.2769
     26 H           3.2672   -1.0770   -1.9634 H       1  UNL1        0.1487
     27 H           5.5576   -0.1977   -1.9169 H       1  UNL1        0.1482
     28 H           6.3155    1.2126   -0.0210 H       1  UNL1        0.1453
     29 H           4.7396    1.7219    1.8176 H       1  UNL1        0.1464
     30 H           2.4431    0.8447    1.7751 H       1  UNL1        0.1656
@<TRIPOS>BOND
     1    26    20    1
     2    27    21    1
     3    13     8    1
     4    12     7    1
     5    20    21   ar
     6    20    19   ar
     7    21    22   ar
     8     8     7   ar
     9     8     9   ar
    10    25    18    1
    11     7     6   ar
    12     5     4    1
    13    14     9    1
    14     9    10   ar
    15    18    19    1
    16    18     2   am
    17     6     4    1
    18     6    11   ar
    19    19    24   ar
    20     4     1    2
    21    22    28    1
    22    22    23   ar
    23    17     1    1
    24     1     2    1
    25    10    11   ar
    26    10    15    1
    27    11    16    1
    28     2     3    2
    29    24    23   ar
    30    24    30    1
    31    23    29    1
