@<TRIPOS>MOLECULE
GS-89-0.out
 21 21 0 0 0
SMALL
MULLIKEN_CHARGES
****
Gaussian 16 # wB97XD def2tzvp, opt=(calcfc, maxcycles=70, maxstep=10), freq=norama
@<TRIPOS>ATOM
      1 C          -1.7754   -0.4086   -0.1455 C.2     1  UNL1       -0.1565
      2 C          -3.2151   -0.2101   -0.0845 C.2     1  UNL1        0.1573
      3 O          -4.0153   -1.0767   -0.3790 O.2     1  UNL1       -0.4036
      4 C          -0.8391    0.5166    0.1364 C.2     1  UNL1        0.0264
      5 C           0.5964    0.1500    0.0555 C.ar    1  UNL1        0.1770
      6 C           1.0298   -1.1303    0.4064 C.ar    1  UNL1       -0.2300
      7 C           2.3688   -1.4739    0.3246 C.ar    1  UNL1       -0.1455
      8 C           3.3022   -0.5452   -0.1136 C.ar    1  UNL1       -0.1327
      9 C           2.8870    0.7328   -0.4573 C.ar    1  UNL1       -0.1532
     10 C           1.5489    1.0806   -0.3634 C.ar    1  UNL1       -0.2138
     11 H           0.3166   -1.8575    0.7726 H       1  UNL1        0.1601
     12 H           2.6850   -2.4688    0.6113 H       1  UNL1        0.1469
     13 H           4.3487   -0.8140   -0.1792 H       1  UNL1        0.1484
     14 H           3.6076    1.4652   -0.7982 H       1  UNL1        0.1466
     15 H           1.2468    2.0827   -0.6367 H       1  UNL1        0.1504
     16 C          -1.1408    1.9365    0.5173 C.3     1  UNL1       -0.3582
     17 H          -0.5343    2.2311    1.3745 H       1  UNL1        0.1573
     18 H          -0.8814    2.6066   -0.3054 H       1  UNL1        0.1568
     19 H          -2.1859    2.1037    0.7578 H       1  UNL1        0.1283
     20 H          -1.4748   -1.3998   -0.4662 H       1  UNL1        0.1494
     21 H          -3.5831    0.7746    0.2461 H       1  UNL1        0.0888
@<TRIPOS>BOND
     1    14     9    1
     2    15    10    1
     3    20     1    1
     4     9    10   ar
     5     9     8   ar
     6     3     2    2
     7    10     5   ar
     8    18    16    1
     9    13     8    1
    10     1     2    1
    11     1     4    2
    12     8     7   ar
    13     2    21    1
    14     5     4    1
    15     5     6   ar
    16     4    16    1
    17     7     6   ar
    18     7    12    1
    19     6    11    1
    20    16    19    1
    21    16    17    1
