@<TRIPOS>MOLECULE
GS-83-1.out
 33 34 0 0 0
SMALL
MULLIKEN_CHARGES
****
Gaussian 16 # wB97XD def2tzvp, opt=(maxcycles=70, maxstep=1), freq=noraman, scrf=(
@<TRIPOS>ATOM
      1 C          -0.9859   -0.8481    0.0041 C.2     1  UNL1        0.0462
      2 C          -2.3127   -1.5593    0.0339 C.2     1  UNL1        0.2461
      3 O          -2.5563   -2.4912    0.7890 O.2     1  UNL1       -0.4640
      4 C           0.1695   -1.5283    0.0131 C.2     1  UNL1        0.0577
      5 C           1.4740   -0.8118    0.0817 C.ar    1  UNL1        0.1308
      6 C           1.7725    0.0031    1.1713 C.ar    1  UNL1       -0.2100
      7 C           2.9874    0.6660    1.2468 C.ar    1  UNL1       -0.1570
      8 C           3.9210    0.5278    0.2294 C.ar    1  UNL1       -0.1329
      9 C           3.6355   -0.2867   -0.8572 C.ar    1  UNL1       -0.1528
     10 C           2.4250   -0.9596   -0.9249 C.ar    1  UNL1       -0.2438
     11 H           1.0422    0.1198    1.9623 H       1  UNL1        0.1544
     12 H           3.2043    1.2937    2.1019 H       1  UNL1        0.1420
     13 H           4.8677    1.0500    0.2843 H       1  UNL1        0.1447
     14 H           4.3575   -0.3991   -1.6562 H       1  UNL1        0.1428
     15 H           2.2100   -1.5875   -1.7811 H       1  UNL1        0.1515
     16 C           0.2820   -3.0247   -0.0326 C.3     1  UNL1       -0.3446
     17 H           1.0014   -3.3153   -0.8009 H       1  UNL1        0.1354
     18 H           0.6739   -3.3937    0.9189 H       1  UNL1        0.1417
     19 H          -0.6666   -3.5154   -0.2263 H       1  UNL1        0.1364
     20 C          -1.0553    0.6389   -0.0605 C.ar    1  UNL1        0.0399
     21 C          -0.4851    1.3408   -1.1198 C.ar    1  UNL1       -0.1919
     22 C          -0.5563    2.7248   -1.1711 C.ar    1  UNL1       -0.1624
     23 C          -1.2034    3.4270   -0.1648 C.ar    1  UNL1       -0.1194
     24 C          -1.7871    2.7363    0.8886 C.ar    1  UNL1       -0.1627
     25 C          -1.7187    1.3530    0.9357 C.ar    1  UNL1       -0.1881
     26 H           0.0225    0.7957   -1.9056 H       1  UNL1        0.1532
     27 H          -0.1059    3.2551   -2.0007 H       1  UNL1        0.1419
     28 H          -1.2571    4.5075   -0.2028 H       1  UNL1        0.1454
     29 H          -2.2964    3.2765    1.6766 H       1  UNL1        0.1426
     30 H          -2.1748    0.8195    1.7616 H       1  UNL1        0.1447
     31 N          -3.2301   -1.0846   -0.8317 N.am    1  UNL1       -0.4341
     32 H          -4.1535   -1.4814   -0.8366 H       1  UNL1        0.2761
     33 H          -3.0379   -0.3000   -1.4280 H       1  UNL1        0.2902
@<TRIPOS>BOND
     1    27    22    1
     2    26    21    1
     3    15    10    1
     4    14     9    1
     5    33    31    1
     6    22    21   ar
     7    22    23   ar
     8    21    20   ar
     9    10     9   ar
    10    10     5   ar
    11     9     8   ar
    12    32    31    1
    13    31     2   am
    14    17    16    1
    15    19    16    1
    16    28    23    1
    17    23    24   ar
    18    20     1    1
    19    20    25   ar
    20    16     4    1
    21    16    18    1
    22     1     4    2
    23     1     2    1
    24     4     5    1
    25     2     3    2
    26     5     6   ar
    27     8    13    1
    28     8     7   ar
    29    24    25   ar
    30    24    29    1
    31    25    30    1
    32     6     7   ar
    33     6    11    1
    34     7    12    1
