@<TRIPOS>MOLECULE
GS-810-1.out
 21 21 0 0 0
SMALL
MULLIKEN_CHARGES
****
Gaussian 16 # wB97XD def2tzvp, opt=(calcfc, maxcycles=70, maxstep=1), freq=noraman
@<TRIPOS>ATOM
      1 C           1.9099    0.2470    0.0106 C.2     1  UNL1       -0.3029
      2 C           2.1818   -1.2070   -0.1172 C.2     1  UNL1        0.2906
      3 O           3.3198   -1.5815    0.0932 O.2     1  UNL1       -0.4005
      4 C           0.7335    0.8707    0.0401 C.2     1  UNL1        0.1262
      5 CL          0.7399    2.6173    0.1274 Cl      1  UNL1       -0.0868
      6 C          -0.6248    0.2892    0.0455 C.ar    1  UNL1        0.2087
      7 C          -1.4481    0.4092   -1.0706 C.ar    1  UNL1       -0.2161
      8 C          -2.7134   -0.1534   -1.0601 C.ar    1  UNL1       -0.1153
      9 C          -3.1701   -0.8211    0.0686 C.ar    1  UNL1       -0.1477
     10 C          -2.3587   -0.9241    1.1885 C.ar    1  UNL1       -0.0979
     11 C          -1.0878   -0.3703    1.1790 C.ar    1  UNL1       -0.2772
     12 H          -1.0909    0.9307   -1.9499 H       1  UNL1        0.1522
     13 H          -3.3448   -0.0707   -1.9351 H       1  UNL1        0.1505
     14 H          -4.1605   -1.2578    0.0751 H       1  UNL1        0.1510
     15 H          -2.7133   -1.4378    2.0726 H       1  UNL1        0.1510
     16 H          -0.4489   -0.4531    2.0492 H       1  UNL1        0.1644
     17 H           2.8139    0.8388    0.0869 H       1  UNL1        0.1554
     18 C           1.1190   -2.1875   -0.5281 C.3     1  UNL1       -0.3595
     19 H           0.4792   -1.7880   -1.3139 H       1  UNL1        0.1490
     20 H           1.6023   -3.1033   -0.8608 H       1  UNL1        0.1463
     21 H           0.4793   -2.4162    0.3259 H       1  UNL1        0.1587
@<TRIPOS>BOND
     1    12     7    1
     2    13     8    1
     3    19    18    1
     4     7     8   ar
     5     7     6   ar
     6     8     9   ar
     7    20    18    1
     8    18     2    1
     9    18    21    1
    10     2     1    1
    11     2     3    2
    12     1     4    2
    13     1    17    1
    14     4     6    1
    15     4     5    1
    16     6    11   ar
    17     9    14    1
    18     9    10   ar
    19    11    10   ar
    20    11    16    1
    21    10    15    1
