@<TRIPOS>MOLECULE
GS-881-2.out
 21 21 0 0 0
SMALL
MULLIKEN_CHARGES
****
Gaussian 16 # wB97XD def2tzvp, opt=(calcfc, maxcycles=70, maxstep=10), freq=norama
@<TRIPOS>ATOM
      1 C          -0.7668    0.5233    0.0826 C.2     1  UNL1       -0.0791
      2 C          -1.1532    1.9450    0.2732 C.2     1  UNL1        0.1687
      3 O          -2.2538    2.4333    0.1702 O.2     1  UNL1       -0.3774
      4 C          -1.6697   -0.4621   -0.0365 C.2     1  UNL1        0.0978
      5 CL         -1.1069   -2.0908   -0.3040 Cl      1  UNL1       -0.0772
      6 C          -3.1536   -0.3786    0.0219 C.3     1  UNL1       -0.3571
      7 H          -3.5698   -0.6078   -0.9618 H       1  UNL1        0.1578
      8 H          -3.5340   -1.1256    0.7196 H       1  UNL1        0.1496
      9 H          -3.4777    0.6127    0.3183 H       1  UNL1        0.1512
     10 C           0.7047    0.2955    0.0505 C.ar    1  UNL1        0.1453
     11 C           1.4459    0.6889   -1.0596 C.ar    1  UNL1       -0.2173
     12 C           2.8221    0.5133   -1.0841 C.ar    1  UNL1       -0.1348
     13 C           3.4705   -0.0498    0.0051 C.ar    1  UNL1       -0.1412
     14 C           2.7384   -0.4345    1.1200 C.ar    1  UNL1       -0.1311
     15 C           1.3634   -0.2606    1.1434 C.ar    1  UNL1       -0.2132
     16 H           0.9419    1.1283   -1.9122 H       1  UNL1        0.1481
     17 H           3.3872    0.8173   -1.9560 H       1  UNL1        0.1462
     18 H           4.5443   -0.1861   -0.0129 H       1  UNL1        0.1477
     19 H           3.2396   -0.8700    1.9751 H       1  UNL1        0.1461
     20 H           0.7931   -0.5605    2.0140 H       1  UNL1        0.1517
     21 H          -0.2888    2.5875    0.5226 H       1  UNL1        0.1180
@<TRIPOS>BOND
     1    17    12    1
     2    16    11    1
     3    12    11   ar
     4    12    13   ar
     5    11    10   ar
     6     7     6    1
     7     5     4    1
     8     4     6    1
     9     4     1    2
    10    18    13    1
    11    13    14   ar
    12     6     9    1
    13     6     8    1
    14    10     1    1
    15    10    15   ar
    16     1     2    1
    17     3     2    2
    18     2    21    1
    19    14    15   ar
    20    14    19    1
    21    15    20    1
