@<TRIPOS>MOLECULE
GS-825-0.out
 18 18 0 0 0
SMALL
MULLIKEN_CHARGES
****
Gaussian 16 # wB97XD def2tzvp, opt=(calcfc, maxcycles=70, maxstep=10), freq=norama
@<TRIPOS>ATOM
      1 C          -0.9129    0.3865    0.0968 C.2     1  UNL1       -0.0755
      2 C          -0.6326    1.8008    0.4225 C.2     1  UNL1        0.1131
      3 O          -1.4731    2.6622    0.4793 O.2     1  UNL1       -0.3513
      4 C           0.0776   -0.5121   -0.0294 C.2     1  UNL1        0.0909
      5 CL         -0.2589   -2.1904   -0.2397 Cl      1  UNL1       -0.0287
      6 C           1.5172   -0.1743   -0.0280 C.ar    1  UNL1        0.1871
      7 C           2.3742   -0.7559    0.9049 C.ar    1  UNL1       -0.2075
      8 C           3.7194   -0.4333    0.9025 C.ar    1  UNL1       -0.1309
      9 C           4.2231    0.4551   -0.0395 C.ar    1  UNL1       -0.1405
     10 C           3.3770    1.0220   -0.9794 C.ar    1  UNL1       -0.0989
     11 C           2.0260    0.7098   -0.9758 C.ar    1  UNL1       -0.2740
     12 H           1.9836   -1.4511    1.6370 H       1  UNL1        0.1598
     13 H           4.3780   -0.8767    1.6376 H       1  UNL1        0.1526
     14 H           5.2772    0.7005   -0.0418 H       1  UNL1        0.1535
     15 H           3.7661    1.7068   -1.7212 H       1  UNL1        0.1540
     16 H           1.3662    1.1414   -1.7175 H       1  UNL1        0.1734
     17 BR         -2.7321   -0.0655   -0.0526 Br      1  UNL1       -0.0296
     18 H           0.4229    2.0183    0.6411 H       1  UNL1        0.1523
@<TRIPOS>BOND
     1    15    10    1
     2    16    11    1
     3    10    11   ar
     4    10     9   ar
     5    11     6   ar
     6     5     4    1
     7    17     1    1
     8    14     9    1
     9     9     8   ar
    10     4     6    1
    11     4     1    2
    12     6     7   ar
    13     1     2    1
    14     2     3    2
    15     2    18    1
    16     8     7   ar
    17     8    13    1
    18     7    12    1
