@<TRIPOS>MOLECULE
GS-873-0.out
 8 7 0 0 0
SMALL
MULLIKEN_CHARGES
****
Gaussian 16 # wB97XD def2tzvp, opt=(calcfc, maxcycles=70, maxstep=10), freq=norama
@<TRIPOS>ATOM
      1 C          -0.5008    0.0646    0.0000 C.2     1  UNL1       -0.0013
      2 C          -1.9429   -0.2989   -0.0000 C.2     1  UNL1        0.1588
      3 O          -2.3416   -1.4339    0.0000 O.2     1  UNL1       -0.3463
      4 C           0.4331   -0.8822   -0.0000 C.2     1  UNL1       -0.0507
      5 CL          2.1103   -0.6017    0.0000 Cl      1  UNL1       -0.0270
      6 H           0.1387   -1.9226   -0.0000 H       1  UNL1        0.2025
      7 CL         -0.1521    1.7506    0.0000 Cl      1  UNL1       -0.0620
      8 H          -2.6325    0.5616   -0.0000 H       1  UNL1        0.1260
@<TRIPOS>BOND
     1     8     2    1
     2     2     1    1
     3     2     3    2
     4     4     6    1
     5     4     5    1
     6     4     1    2
     7     7     1    1
