@<TRIPOS>MOLECULE
GS-827-0.out
 20 20 0 0 0
SMALL
MULLIKEN_CHARGES
****
Gaussian 16 # wB97XD def2tzvp, opt=(calcfc, maxcycles=70, maxstep=10), freq=norama
@<TRIPOS>ATOM
      1 C          -0.9003    0.2312   -0.0726 C.2     1  UNL1       -0.0729
      2 C          -0.5868    1.6769   -0.3940 C.2     1  UNL1        0.2519
      3 O          -0.0530    1.9788   -1.4454 O.2     1  UNL1       -0.4251
      4 C           0.0543   -0.6818    0.0833 C.2     1  UNL1        0.0231
      5 CL         -0.3234   -2.3589    0.3082 Cl      1  UNL1       -0.0645
      6 C           1.4987   -0.3577    0.0881 C.ar    1  UNL1        0.2264
      7 C           2.0036    0.5615    1.0025 C.ar    1  UNL1       -0.2158
      8 C           3.3528    0.8824    0.9942 C.ar    1  UNL1       -0.1319
      9 C           4.2038    0.2854    0.0774 C.ar    1  UNL1       -0.1426
     10 C           3.7045   -0.6403   -0.8301 C.ar    1  UNL1       -0.1309
     11 C           2.3594   -0.9658   -0.8230 C.ar    1  UNL1       -0.2277
     12 H           1.3417    1.0209    1.7254 H       1  UNL1        0.1631
     13 H           3.7379    1.5966    1.7104 H       1  UNL1        0.1496
     14 H           5.2568    0.5360    0.0713 H       1  UNL1        0.1500
     15 H           4.3660   -1.1092   -1.5471 H       1  UNL1        0.1496
     16 H           1.9722   -1.6873   -1.5312 H       1  UNL1        0.1555
     17 BR         -2.7425   -0.1658   -0.0119 Br      1  UNL1       -0.0172
     18 N          -0.9567    2.5634    0.5405 N.am    1  UNL1       -0.4297
     19 H          -0.8190    3.5449    0.3700 H       1  UNL1        0.2891
     20 H          -1.3885    2.2791    1.4016 H       1  UNL1        0.3001
@<TRIPOS>BOND
     1    15    10    1
     2    16    11    1
     3     3     2    2
     4    10    11   ar
     5    10     9   ar
     6    11     6   ar
     7     2     1    1
     8     2    18   am
     9     1    17    1
    10     1     4    2
    11    14     9    1
    12     9     8   ar
    13     4     6    1
    14     4     5    1
    15     6     7   ar
    16    19    18    1
    17    18    20    1
    18     8     7   ar
    19     8    13    1
    20     7    12    1
