@<TRIPOS>MOLECULE
GS-818-0.out
 24 24 0 0 0
SMALL
MULLIKEN_CHARGES
****
Gaussian 16 # wB97XD def2tzvp, opt=(calcfc, maxcycles=70, maxstep=10), freq=norama
@<TRIPOS>ATOM
      1 C           1.6804   -0.0715    0.0141 C.2     1  UNL1       -0.0054
      2 C           1.4533   -1.5585    0.1555 C.2     1  UNL1        0.2117
      3 O           1.9380   -2.3139   -0.6569 O.2     1  UNL1       -0.3747
      4 C           0.6437    0.7610   -0.0662 C.2     1  UNL1        0.0316
      5 CL          0.8978    2.4929   -0.1850 Cl      1  UNL1       -0.1082
      6 C          -0.7802    0.3646   -0.1069 C.ar    1  UNL1        0.1090
      7 C          -1.6984    0.9007    0.7953 C.ar    1  UNL1       -0.1972
      8 C          -3.0158    0.4777    0.7843 C.ar    1  UNL1       -0.1362
      9 C          -3.4366   -0.4749   -0.1358 C.ar    1  UNL1       -0.1375
     10 C          -2.5342   -0.9971   -1.0485 C.ar    1  UNL1       -0.1302
     11 C          -1.2118   -0.5770   -1.0374 C.ar    1  UNL1       -0.2134
     12 H          -1.3733    1.6400    1.5164 H       1  UNL1        0.1521
     13 H          -3.7176    0.8898    1.4979 H       1  UNL1        0.1486
     14 H          -4.4681   -0.8029   -0.1431 H       1  UNL1        0.1497
     15 H          -2.8578   -1.7297   -1.7765 H       1  UNL1        0.1491
     16 H          -0.5117   -0.9762   -1.7601 H       1  UNL1        0.1665
     17 C           3.1284    0.3060   -0.0487 C.3     1  UNL1       -0.3471
     18 H           3.6070   -0.2331   -0.8679 H       1  UNL1        0.1465
     19 H           3.2655    1.3733   -0.1974 H       1  UNL1        0.1344
     20 H           3.6367    0.0133    0.8733 H       1  UNL1        0.1473
     21 C           0.7480   -2.0538    1.3850 C.3     1  UNL1       -0.3554
     22 H           1.4333   -1.9249    2.2282 H       1  UNL1        0.1596
     23 H          -0.1454   -1.4717    1.6040 H       1  UNL1        0.1602
     24 H           0.5041   -3.1087    1.2807 H       1  UNL1        0.1391
@<TRIPOS>BOND
     1    15    10    1
     2    16    11    1
     3    10    11   ar
     4    10     9   ar
     5    11     6   ar
     6    18    17    1
     7     3     2    2
     8    19    17    1
     9     5     4    1
    10    14     9    1
    11     9     8   ar
    12     6     4    1
    13     6     7   ar
    14     4     1    2
    15    17     1    1
    16    17    20    1
    17     1     2    1
    18     2    21    1
    19     8     7   ar
    20     8    13    1
    21     7    12    1
    22    24    21    1
    23    21    23    1
    24    21    22    1
