@<TRIPOS>MOLECULE
GS-902-0.out
 22 21 0 0 0
SMALL
MULLIKEN_CHARGES
****
Gaussian 16 # wb97xd def2tzvp opt=(calcfc, maxcycles=100, maxstep=10) freq=noraman
@<TRIPOS>ATOM
      1 C          -0.3901    0.6339   -0.0118 C.2     1  UNL1       -0.1198
      2 C           1.0357    0.4826   -0.4849 C.2     1  UNL1        0.2959
      3 O           1.3642    1.0104   -1.5434 O.2     1  UNL1       -0.4913
      4 C          -1.2503   -0.3482   -0.2482 C.2     1  UNL1        0.0580
      5 CL         -2.9444   -0.1682    0.1803 Cl      1  UNL1       -0.1309
      6 C          -0.9517   -1.6758   -0.8624 C.3     1  UNL1       -0.3736
      7 H           0.1009   -1.7562   -1.1299 H       1  UNL1        0.1454
      8 H          -1.1947   -2.4803   -0.1657 H       1  UNL1        0.1477
      9 H          -1.5503   -1.8242   -1.7627 H       1  UNL1        0.1520
     10 C          -0.6816    1.9637    0.6107 C.3     1  UNL1       -0.3329
     11 H          -0.4033    2.7647   -0.0771 H       1  UNL1        0.1469
     12 H          -1.7318    2.0711    0.8688 H       1  UNL1        0.1324
     13 H          -0.0847    2.0934    1.5173 H       1  UNL1        0.1453
     14 N           1.8933   -0.1947    0.3010 N.am    1  UNL1       -0.1083
     15 C           3.2728   -0.3694   -0.1077 C.3     1  UNL1       -0.2767
     16 C           1.5464   -0.7921    1.5751 C.3     1  UNL1       -0.2932
     17 H           3.4122    0.0514   -1.0980 H       1  UNL1        0.1505
     18 H           3.9412    0.1306    0.5969 H       1  UNL1        0.1438
     19 H           3.5193   -1.4331   -0.1253 H       1  UNL1        0.1398
     20 H           0.5342   -0.5278    1.8639 H       1  UNL1        0.1709
     21 H           1.6229   -1.8806    1.5172 H       1  UNL1        0.1493
     22 H           2.2356   -0.4373    2.3439 H       1  UNL1        0.1486
@<TRIPOS>BOND
     1     9     6    1
     2     3     2    2
     3     7     6    1
     4    17    15    1
     5     6     4    1
     6     6     8    1
     7     2     1    1
     8     2    14   am
     9     4     1    2
    10     4     5    1
    11    19    15    1
    12    15    14    1
    13    15    18    1
    14    11    10    1
    15     1    10    1
    16    14    16    1
    17    10    12    1
    18    10    13    1
    19    21    16    1
    20    16    20    1
    21    16    22    1
