@<TRIPOS>MOLECULE
GS-959-0.out
 20 20 0 0 0
SMALL
MULLIKEN_CHARGES
****
Gaussian 16 # wB97XD def2tzvp, opt=(calcfc, maxcycles=70, maxstep=10), freq=norama
@<TRIPOS>ATOM
      1 C          -1.2798    0.9460    0.0540 C.2     1  UNL1       -0.0452
      2 C           0.1389    0.8180    0.5689 C.2     1  UNL1        0.4227
      3 O           0.3934    1.1021    1.7208 O.2     1  UNL1       -0.4275
      4 C          -2.1143   -0.0775   -0.0893 C.2     1  UNL1       -0.0426
      5 CL         -3.7409    0.0908   -0.5914 Cl      1  UNL1       -0.0156
      6 BR         -1.5685   -1.8392    0.2855 Br      1  UNL1        0.0207
      7 CL         -1.7582    2.5721   -0.2403 Cl      1  UNL1       -0.0331
      8 N           1.0159    0.4121   -0.3726 N.am    1  UNL1       -0.2648
      9 C           2.4016    0.1857   -0.2532 C.ar    1  UNL1        0.3116
     10 C           3.0717   -0.2297   -1.4032 C.ar    1  UNL1       -0.2932
     11 C           4.4322   -0.4740   -1.3660 C.ar    1  UNL1       -0.0979
     12 C           5.1417   -0.3078   -0.1841 C.ar    1  UNL1       -0.1795
     13 C           4.4717    0.1043    0.9562 C.ar    1  UNL1       -0.1088
     14 C           3.1063    0.3538    0.9353 C.ar    1  UNL1       -0.2897
     15 H           0.6277    0.2318   -1.2851 H       1  UNL1        0.2842
     16 H           2.5238   -0.3610   -2.3288 H       1  UNL1        0.1492
     17 H           4.9390   -0.7957   -2.2667 H       1  UNL1        0.1491
     18 H           6.2063   -0.4987   -0.1547 H       1  UNL1        0.1461
     19 H           5.0133    0.2369    1.8842 H       1  UNL1        0.1474
     20 H           2.5945    0.6741    1.8279 H       1  UNL1        0.1670
@<TRIPOS>BOND
     1    16    10    1
     2    17    11    1
     3    10    11   ar
     4    10     9   ar
     5    11    12   ar
     6    15     8    1
     7     5     4    1
     8     8     9    1
     9     8     2   am
    10     9    14   ar
    11     7     1    1
    12    12    18    1
    13    12    13   ar
    14     4     1    2
    15     4     6    1
    16     1     2    1
    17     2     3    2
    18    14    13   ar
    19    14    20    1
    20    13    19    1
