@<TRIPOS>MOLECULE
GS-900-0.out
 18 17 0 0 0
SMALL
MULLIKEN_CHARGES
****
Gaussian 16 # wB97XD def2tzvp, opt=(calcfc, maxcycles=70, maxstep=10), freq=norama
@<TRIPOS>ATOM
      1 C          -0.1339   -0.3965    0.1448 C.2     1  UNL1       -0.1184
      2 C           1.2187    0.2371    0.1904 C.2     1  UNL1        0.4363
      3 O           1.4909    1.3155    0.6613 O.2     1  UNL1       -0.4305
      4 C          -1.2081    0.3773   -0.0345 C.2     1  UNL1        0.1104
      5 CL         -2.7928   -0.3685   -0.0986 Cl      1  UNL1       -0.1100
      6 C          -1.2895    1.8538   -0.2307 C.3     1  UNL1       -0.3579
      7 H          -0.3037    2.2983   -0.3151 H       1  UNL1        0.1456
      8 H          -1.8697    2.0721   -1.1282 H       1  UNL1        0.1443
      9 H          -1.8069    2.3120    0.6148 H       1  UNL1        0.1492
     10 C          -0.1597   -1.8937    0.2712 C.3     1  UNL1       -0.3458
     11 H           0.5657   -2.2272    1.0129 H       1  UNL1        0.1413
     12 H          -1.1437   -2.2485    0.5644 H       1  UNL1        0.1352
     13 H           0.1063   -2.3641   -0.6776 H       1  UNL1        0.1435
     14 O           2.1342   -0.5700   -0.3448 O.3     1  UNL1       -0.2717
     15 C           3.4839   -0.1019   -0.3297 C.3     1  UNL1       -0.1994
     16 H           4.0730   -0.8898   -0.7893 H       1  UNL1        0.1477
     17 H           3.5736    0.8208   -0.9016 H       1  UNL1        0.1396
     18 H           3.8147    0.0710    0.6937 H       1  UNL1        0.1406
@<TRIPOS>BOND
     1     8     6    1
     2    17    15    1
     3    16    15    1
     4    13    10    1
     5    14    15    1
     6    14     2    1
     7    15    18    1
     8     7     6    1
     9     6     4    1
    10     6     9    1
    11     5     4    1
    12     4     1    2
    13     1     2    1
    14     1    10    1
    15     2     3    2
    16    10    12    1
    17    10    11    1
