@<TRIPOS>MOLECULE
GS-963-1.out
 20 20 0 0 0
SMALL
MULLIKEN_CHARGES
****
Gaussian 16 # wB97XD def2tzvp, opt=(calcfc, maxcycles=70, maxstep=1), freq=noraman
@<TRIPOS>ATOM
      1 C           0.4400    0.3093    0.0066 C.2     1  UNL1       -0.0814
      2 C           0.8988    1.7498    0.0852 C.2     1  UNL1        0.2775
      3 O           1.0298    2.4200   -0.9241 O.2     1  UNL1       -0.4379
      4 C           1.3336   -0.6661   -0.0920 C.2     1  UNL1        0.0369
      5 CL          0.9231   -2.3261   -0.3079 Cl      1  UNL1       -0.0321
      6 CL          3.0359   -0.3765   -0.0513 Cl      1  UNL1       -0.0361
      7 C          -1.0302    0.1091    0.0038 C.ar    1  UNL1        0.2221
      8 C          -1.8107    0.7119   -0.9799 C.ar    1  UNL1       -0.2231
      9 C          -3.1874    0.5506   -0.9725 C.ar    1  UNL1       -0.1381
     10 C          -3.7964   -0.2027    0.0209 C.ar    1  UNL1       -0.1410
     11 C          -3.0236   -0.7945    1.0099 C.ar    1  UNL1       -0.1265
     12 C          -1.6465   -0.6395    1.0033 C.ar    1  UNL1       -0.2433
     13 H          -1.3353    1.3028   -1.7523 H       1  UNL1        0.1520
     14 H          -3.7854    1.0158   -1.7456 H       1  UNL1        0.1476
     15 H          -4.8719   -0.3256    0.0266 H       1  UNL1        0.1489
     16 H          -3.4935   -1.3769    1.7919 H       1  UNL1        0.1480
     17 H          -1.0455   -1.0961    1.7793 H       1  UNL1        0.1641
     18 N           1.0844    2.2144    1.3274 N.am    1  UNL1       -0.4241
     19 H           1.3606    3.1723    1.4638 H       1  UNL1        0.2857
     20 H           0.9738    1.6229    2.1315 H       1  UNL1        0.3008
@<TRIPOS>BOND
     1    13     8    1
     2    14     9    1
     3     8     9   ar
     4     8     7   ar
     5     9    10   ar
     6     3     2    2
     7     5     4    1
     8     4     6    1
     9     4     1    2
    10     7     1    1
    11     7    12   ar
    12     1     2    1
    13    10    15    1
    14    10    11   ar
    15     2    18   am
    16    12    11   ar
    17    12    17    1
    18    11    16    1
    19    18    19    1
    20    18    20    1
