@<TRIPOS>MOLECULE
GS-990-0.out
 16 15 0 0 0
SMALL
MULLIKEN_CHARGES
****
Gaussian 16 # wB97XD def2tzvp, opt=(calcfc, maxcycles=70, maxstep=10), freq=norama
@<TRIPOS>ATOM
      1 C           0.1812   -0.1190   -0.1898 C.2     1  UNL1       -0.1315
      2 C          -1.2700   -0.1101   -0.6149 C.2     1  UNL1        0.3232
      3 O          -1.5187   -0.2236   -1.8066 O.2     1  UNL1       -0.4652
      4 C           0.9085    0.9838   -0.0682 C.2     1  UNL1        0.0396
      5 CL          2.5860    1.0142    0.2730 Cl      1  UNL1       -0.0155
      6 CL          0.1802    2.5357   -0.2443 Cl      1  UNL1       -0.0202
      7 BR          0.9108   -1.8391   -0.0031 Br      1  UNL1        0.0100
      8 N          -2.1903   -0.0052    0.3533 N.am    1  UNL1       -0.0945
      9 C          -3.5992    0.0055    0.0080 C.3     1  UNL1       -0.2762
     10 C          -1.8978    0.1287    1.7673 C.3     1  UNL1       -0.2939
     11 H          -3.7093   -0.0835   -1.0675 H       1  UNL1        0.1541
     12 H          -4.1056   -0.8285    0.4974 H       1  UNL1        0.1473
     13 H          -4.0541    0.9387    0.3456 H       1  UNL1        0.1459
     14 H          -0.8327    0.0419    1.9584 H       1  UNL1        0.1722
     15 H          -2.2421    1.0994    2.1296 H       1  UNL1        0.1533
     16 H          -2.4161   -0.6555    2.3213 H       1  UNL1        0.1515
@<TRIPOS>BOND
     1     3     2    2
     2    11     9    1
     3     2     1    1
     4     2     8   am
     5     6     4    1
     6     1     4    2
     7     1     7    1
     8     4     5    1
     9     9    13    1
    10     9     8    1
    11     9    12    1
    12     8    10    1
    13    10    14    1
    14    10    15    1
    15    10    16    1
