@<TRIPOS>MOLECULE
GS-98-1.out
 27 27 0 0 0
SMALL
MULLIKEN_CHARGES
****
Gaussian 16 # wB97XD def2tzvp, opt=(maxcycles=70, maxstep=1), freq=noraman, scrf=(
@<TRIPOS>ATOM
      1 C          -1.3337   -0.2615   -0.2562 C.2     1  UNL1       -0.0596
      2 C          -2.7894    0.0492   -0.1096 C.2     1  UNL1        0.2444
      3 O          -3.2500    1.1538   -0.3175 O.2     1  UNL1       -0.4060
      4 C          -0.3894    0.5765    0.1961 C.2     1  UNL1        0.0500
      5 C           1.0573    0.2272    0.0984 C.ar    1  UNL1        0.1427
      6 C           1.6029   -0.7879    0.8794 C.ar    1  UNL1       -0.2350
      7 C           2.9557   -1.0855    0.8072 C.ar    1  UNL1       -0.1299
      8 C           3.7815   -0.3713   -0.0492 C.ar    1  UNL1       -0.1470
      9 C           3.2471    0.6449   -0.8286 C.ar    1  UNL1       -0.1494
     10 C           1.8956    0.9468   -0.7496 C.ar    1  UNL1       -0.2160
     11 H           0.9593   -1.3498    1.5456 H       1  UNL1        0.1478
     12 H           3.3648   -1.8783    1.4208 H       1  UNL1        0.1437
     13 H           4.8369   -0.6049   -0.1083 H       1  UNL1        0.1451
     14 H           3.8842    1.2061   -1.5007 H       1  UNL1        0.1435
     15 H           1.4850    1.7420   -1.3605 H       1  UNL1        0.1495
     16 C          -0.6340    1.8967    0.8725 C.3     1  UNL1       -0.3548
     17 H          -0.0408    1.9495    1.7881 H       1  UNL1        0.1368
     18 H          -0.2913    2.7116    0.2287 H       1  UNL1        0.1420
     19 H          -1.6792    2.0717    1.1061 H       1  UNL1        0.1343
     20 C          -1.0297   -1.5906   -0.9021 C.3     1  UNL1       -0.4013
     21 H          -1.6417   -1.7354   -1.7949 H       1  UNL1        0.1527
     22 H           0.0149   -1.6585   -1.1954 H       1  UNL1        0.1532
     23 H          -1.2426   -2.4227   -0.2265 H       1  UNL1        0.1466
     24 C          -3.6864   -1.0950    0.2911 C.3     1  UNL1       -0.3852
     25 H          -3.2605   -1.6466    1.1308 H       1  UNL1        0.1562
     26 H          -4.6722   -0.7150    0.5491 H       1  UNL1        0.1391
     27 H          -3.7815   -1.7976   -0.5398 H       1  UNL1        0.1566
@<TRIPOS>BOND
     1    21    20    1
     2    14     9    1
     3    15    10    1
     4    22    20    1
     5    20     1    1
     6    20    23    1
     7     9    10   ar
     8     9     8   ar
     9    10     5   ar
    10    27    24    1
    11     3     2    2
    12     1     2    1
    13     1     4    2
    14     2    24    1
    15    13     8    1
    16     8     7   ar
    17     5     4    1
    18     5     6   ar
    19     4    16    1
    20    18    16    1
    21    24    26    1
    22    24    25    1
    23     7     6   ar
    24     7    12    1
    25    16    19    1
    26    16    17    1
    27     6    11    1
