@<TRIPOS>MOLECULE
GS-987-0.out
 10 9 0 0 0
SMALL
MULLIKEN_CHARGES
****
Gaussian 16 # wB97XD def2tzvp, opt=(calcfc, maxcycles=70, maxstep=10), freq=norama
@<TRIPOS>ATOM
      1 C          -0.1243    0.2508   -0.0107 C.2     1  UNL1       -0.0717
      2 C          -0.2028    1.7590   -0.1162 C.2     1  UNL1        0.3091
      3 O          -0.3919    2.2903   -1.1933 O.2     1  UNL1       -0.4288
      4 C           1.0215   -0.4188   -0.0083 C.2     1  UNL1        0.0375
      5 CL          1.1470   -2.1261    0.0285 Cl      1  UNL1       -0.0133
      6 CL          2.5310    0.4101   -0.0621 Cl      1  UNL1       -0.0157
      7 BR         -1.7981   -0.5967    0.0181 Br      1  UNL1        0.0124
      8 N          -0.0809    2.4081    1.0466 N.am    1  UNL1       -0.4262
      9 H          -0.1337    3.4129    1.0606 H       1  UNL1        0.2916
     10 H           0.0789    1.9196    1.9095 H       1  UNL1        0.3052
@<TRIPOS>BOND
     1     3     2    2
     2     2     1    1
     3     2     8   am
     4     6     4    1
     5     1     4    2
     6     1     7    1
     7     4     5    1
     8     8     9    1
     9     8    10    1
