@<TRIPOS>MOLECULE
GS-90-0.out
 24 24 0 0 0
SMALL
MULLIKEN_CHARGES
****
Gaussian 16 # wB97XD def2tzvp, opt=(calcfc, maxcycles=70, maxstep=10), freq=norama
@<TRIPOS>ATOM
      1 C          -1.4053   -0.3943   -0.1684 C.2     1  UNL1       -0.2827
      2 C          -2.8690   -0.2197   -0.1385 C.2     1  UNL1        0.3170
      3 O          -3.4280    0.8594   -0.0509 O.2     1  UNL1       -0.4294
      4 C          -0.4701    0.5195    0.1429 C.2     1  UNL1        0.0882
      5 C           0.9638    0.1424    0.0667 C.ar    1  UNL1        0.1687
      6 C           1.4029   -1.1311    0.4310 C.ar    1  UNL1       -0.2368
      7 C           2.7424   -1.4732    0.3382 C.ar    1  UNL1       -0.1463
      8 C           3.6686   -0.5495   -0.1247 C.ar    1  UNL1       -0.1357
      9 C           3.2467    0.7229   -0.4825 C.ar    1  UNL1       -0.1494
     10 C           1.9091    1.0691   -0.3768 C.ar    1  UNL1       -0.2275
     11 H           0.6941   -1.8538    0.8146 H       1  UNL1        0.1595
     12 H           3.0644   -2.4630    0.6360 H       1  UNL1        0.1455
     13 H           4.7149   -0.8172   -0.1983 H       1  UNL1        0.1472
     14 H           3.9618    1.4513   -0.8432 H       1  UNL1        0.1454
     15 H           1.5961    2.0661   -0.6595 H       1  UNL1        0.1615
     16 C          -0.7707    1.9295    0.5580 C.3     1  UNL1       -0.3908
     17 H          -0.0062    2.2987    1.2410 H       1  UNL1        0.1475
     18 H          -0.7765    2.5855   -0.3170 H       1  UNL1        0.1547
     19 H          -1.7513    2.0074    1.0172 H       1  UNL1        0.1502
     20 H          -1.0777   -1.3843   -0.4644 H       1  UNL1        0.1612
     21 C          -3.6620   -1.4983   -0.2446 C.3     1  UNL1       -0.3835
     22 H          -3.3689   -2.1895    0.5485 H       1  UNL1        0.1511
     23 H          -4.7275   -1.2905   -0.1820 H       1  UNL1        0.1342
     24 H          -3.4380   -1.9901   -1.1943 H       1  UNL1        0.1504
@<TRIPOS>BOND
     1    24    21    1
     2    14     9    1
     3    15    10    1
     4     9    10   ar
     5     9     8   ar
     6    20     1    1
     7    10     5   ar
     8    18    16    1
     9    21    23    1
    10    21     2    1
    11    21    22    1
    12    13     8    1
    13     1     2    1
    14     1     4    2
    15     2     3    2
    16     8     7   ar
    17     5     4    1
    18     5     6   ar
    19     4    16    1
    20     7     6   ar
    21     7    12    1
    22     6    11    1
    23    16    19    1
    24    16    17    1
