@<TRIPOS>MOLECULE
GS-946-1.out
 11 10 0 0 0
SMALL
MULLIKEN_CHARGES
****
Gaussian 16 # wB97XD def2tzvp, opt=(calcfc, maxcycles=70, maxstep=1), freq=noraman
@<TRIPOS>ATOM
      1 C          -0.4982    0.2222   -0.0528 C.2     1  UNL1       -0.0087
      2 C          -0.3967    1.7339   -0.1620 C.2     1  UNL1        0.2200
      3 O          -0.3548    2.2463   -1.2496 O.2     1  UNL1       -0.3326
      4 C           0.5466   -0.5905    0.0004 C.2     1  UNL1       -0.0201
      5 CL          0.4472   -2.2968    0.0960 Cl      1  UNL1       -0.0170
      6 BR          2.2991    0.1054   -0.0241 Br      1  UNL1        0.0153
      7 BR         -2.2742   -0.3908   -0.0192 Br      1  UNL1        0.0099
      8 C          -0.3945    2.4852    1.1311 C.3     1  UNL1       -0.3441
      9 H           0.4656    2.1746    1.7283 H       1  UNL1        0.1623
     10 H          -0.3573    3.5557    0.9460 H       1  UNL1        0.1488
     11 H          -1.2895    2.2316    1.7031 H       1  UNL1        0.1660
@<TRIPOS>BOND
     1     3     2    2
     2     2     1    1
     3     2     8    1
     4     1     7    1
     5     1     4    2
     6     6     4    1
     7     4     5    1
     8    10     8    1
     9     8    11    1
    10     8     9    1
