@<TRIPOS>MOLECULE
GS-911-0.out
 23 23 0 0 0
SMALL
MULLIKEN_CHARGES
****
Gaussian 16 # wB97XD def2tzvp, opt=(calcfc, maxcycles=70, maxstep=10), freq=norama
@<TRIPOS>ATOM
      1 C          -1.3408    0.0243   -0.1880 C.2     1  UNL1       -0.1293
      2 C           0.0765   -0.2747   -0.6135 C.2     1  UNL1        0.4066
      3 O           0.3054   -0.8980   -1.6309 O.2     1  UNL1       -0.4374
      4 C          -1.8791    1.2362   -0.2724 C.2     1  UNL1        0.0507
      5 CL         -3.5303    1.5165    0.1763 Cl      1  UNL1       -0.0763
      6 C          -1.1744    2.4592   -0.7634 C.3     1  UNL1       -0.3713
      7 H          -0.1600    2.2368   -1.0872 H       1  UNL1        0.1524
      8 H          -1.7235    2.8843   -1.6044 H       1  UNL1        0.1589
      9 H          -1.1353    3.2106    0.0265 H       1  UNL1        0.1600
     10 BR         -2.2709   -1.5122    0.3821 Br      1  UNL1       -0.0238
     11 N           1.0044    0.1986    0.2507 N.am    1  UNL1       -0.2659
     12 C           2.4086    0.1169    0.1795 C.ar    1  UNL1        0.3114
     13 C           3.1254    0.6512    1.2499 C.ar    1  UNL1       -0.2974
     14 C           4.5077    0.6142    1.2513 C.ar    1  UNL1       -0.0970
     15 C           5.1945    0.0448    0.1874 C.ar    1  UNL1       -0.1807
     16 C           4.4792   -0.4843   -0.8745 C.ar    1  UNL1       -0.1090
     17 C           3.0913   -0.4546   -0.8908 C.ar    1  UNL1       -0.2904
     18 H           0.6398    0.6656    1.0656 H       1  UNL1        0.2832
     19 H           2.5961    1.0968    2.0839 H       1  UNL1        0.1484
     20 H           5.0493    1.0330    2.0897 H       1  UNL1        0.1484
     21 H           6.2762    0.0152    0.1882 H       1  UNL1        0.1455
     22 H           5.0025   -0.9305   -1.7108 H       1  UNL1        0.1467
     23 H           2.5443   -0.8691   -1.7214 H       1  UNL1        0.1660
@<TRIPOS>BOND
     1    23    17    1
     2    22    16    1
     3     3     2    2
     4     8     6    1
     5     7     6    1
     6    17    16   ar
     7    17    12   ar
     8    16    15   ar
     9     6     4    1
    10     6     9    1
    11     2     1    1
    12     2    11   am
    13     4     1    2
    14     4     5    1
    15     1    10    1
    16    12    11    1
    17    12    13   ar
    18    15    21    1
    19    15    14   ar
    20    11    18    1
    21    13    14   ar
    22    13    19    1
    23    14    20    1
