@<TRIPOS>MOLECULE
GS-93-0.out
 26 26 0 0 0
SMALL
MULLIKEN_CHARGES
****
Gaussian 16 # wB97XD def2tzvp, opt=(maxcycles=50, maxstep=10), freq=noraman, geom=
@<TRIPOS>ATOM
      1 C          -0.9886   -0.2077   -0.1471 C.2     1  UNL1       -0.2692
      2 C          -2.4438    0.0794   -0.1051 C.2     1  UNL1        0.3980
      3 O          -2.9424    1.2008   -0.0369 O.2     1  UNL1       -0.5158
      4 C           0.0115    0.6319    0.1502 C.2     1  UNL1        0.0477
      5 C           1.4135    0.1440    0.0616 C.ar    1  UNL1        0.1748
      6 C           1.7563   -1.1553    0.4384 C.ar    1  UNL1       -0.2416
      7 C           3.0640   -1.6032    0.3399 C.ar    1  UNL1       -0.1472
      8 C           4.0571   -0.7600   -0.1375 C.ar    1  UNL1       -0.1387
      9 C           3.7326    0.5377   -0.5051 C.ar    1  UNL1       -0.1509
     10 C           2.4262    0.9879   -0.3971 C.ar    1  UNL1       -0.2280
     11 H           0.9962   -1.8164    0.8354 H       1  UNL1        0.1590
     12 H           3.3089   -2.6125    0.6459 H       1  UNL1        0.1445
     13 H           5.0788   -1.1094   -0.2144 H       1  UNL1        0.1461
     14 H           4.5000    1.2052   -0.8764 H       1  UNL1        0.1443
     15 H           2.1922    2.0038   -0.6883 H       1  UNL1        0.1516
     16 C          -0.1679    2.0630    0.5673 C.3     1  UNL1       -0.3872
     17 H           0.5445    2.3175    1.3530 H       1  UNL1        0.1445
     18 H           0.0301    2.7297   -0.2764 H       1  UNL1        0.1468
     19 H          -1.1817    2.2542    0.9021 H       1  UNL1        0.1485
     20 H          -0.7314   -1.2157   -0.4534 H       1  UNL1        0.1569
     21 N          -3.2169   -1.0258   -0.1645 N.am    1  UNL1       -0.3138
     22 C          -4.6593   -0.9552   -0.1331 C.3     1  UNL1       -0.2529
     23 H          -2.7793   -1.9285   -0.1948 H       1  UNL1        0.2694
     24 H          -5.0592   -1.9632   -0.2115 H       1  UNL1        0.1458
     25 H          -5.0124   -0.5056    0.7968 H       1  UNL1        0.1333
     26 H          -5.0378   -0.3593   -0.9652 H       1  UNL1        0.1340
@<TRIPOS>BOND
     1    26    22    1
     2    14     9    1
     3    15    10    1
     4     9    10   ar
     5     9     8   ar
     6    20     1    1
     7    10     5   ar
     8    18    16    1
     9    13     8    1
    10    24    22    1
    11    23    21    1
    12    21    22    1
    13    21     2   am
    14     1     2    1
    15     1     4    2
    16     8     7   ar
    17    22    25    1
    18     2     3    2
    19     5     4    1
    20     5     6   ar
    21     4    16    1
    22     7     6   ar
    23     7    12    1
    24     6    11    1
    25    16    19    1
    26    16    17    1
