@<TRIPOS>MOLECULE
GS-929-0.out
 8 7 0 0 0
SMALL
MULLIKEN_CHARGES
****
Gaussian 16 # wB97XD def2tzvp, opt=(calcfc, maxcycles=70, maxstep=10), freq=norama
@<TRIPOS>ATOM
      1 C          -1.2217    0.8102    0.0000 C.2     1  UNL1       -0.2033
      2 C          -2.2583   -0.2265    0.0000 C.2     1  UNL1        0.1751
      3 O          -3.4370    0.0419   -0.0000 O.2     1  UNL1       -0.3639
      4 C           0.0892    0.5770    0.0000 C.2     1  UNL1        0.0778
      5 CL          1.2207    1.8659   -0.0000 Cl      1  UNL1       -0.0121
      6 BR          0.8735   -1.1309   -0.0000 Br      1  UNL1        0.0248
      7 H          -1.5658    1.8371    0.0000 H       1  UNL1        0.1820
      8 H          -1.9166   -1.2737    0.0000 H       1  UNL1        0.1195
@<TRIPOS>BOND
     1     3     2    2
     2     5     4    1
     3     2     8    1
     4     2     1    1
     5     6     4    1
     6     4     1    2
     7     1     7    1
