@<TRIPOS>MOLECULE
GS-962-0.out
 21 21 0 0 0
SMALL
MULLIKEN_CHARGES
****
Gaussian 16 # wB97XD def2tzvp, opt=(calcfc, maxcycles=70, maxstep=10), freq=norama
@<TRIPOS>ATOM
      1 C           0.4808    0.3462   -0.0376 C.2     1  UNL1       -0.0746
      2 C           0.8868    1.8001    0.0015 C.2     1  UNL1        0.2392
      3 O           1.7602    2.2351   -0.7097 O.2     1  UNL1       -0.3602
      4 C           1.3803   -0.6352   -0.0387 C.2     1  UNL1        0.0419
      5 CL          0.9338   -2.3006   -0.1084 Cl      1  UNL1       -0.0276
      6 CL          3.0827   -0.4077    0.0619 Cl      1  UNL1       -0.0204
      7 C          -0.9829    0.0778   -0.0466 C.ar    1  UNL1        0.1488
      8 C          -1.6258   -0.4178    1.0837 C.ar    1  UNL1       -0.2096
      9 C          -2.9963   -0.6232    1.0720 C.ar    1  UNL1       -0.1328
     10 C          -3.7345   -0.3346   -0.0674 C.ar    1  UNL1       -0.1304
     11 C          -3.0983    0.1632   -1.1952 C.ar    1  UNL1       -0.1421
     12 C          -1.7276    0.3735   -1.1842 C.ar    1  UNL1       -0.1854
     13 H          -1.0496   -0.6409    1.9730 H       1  UNL1        0.1595
     14 H          -3.4887   -1.0088    1.9556 H       1  UNL1        0.1481
     15 H          -4.8048   -0.4961   -0.0753 H       1  UNL1        0.1496
     16 H          -3.6692    0.3902   -2.0863 H       1  UNL1        0.1481
     17 H          -1.2320    0.7654   -2.0641 H       1  UNL1        0.1511
     18 C           0.1113    2.6695    0.9501 C.3     1  UNL1       -0.3752
     19 H           0.0363    2.1957    1.9302 H       1  UNL1        0.1585
     20 H           0.5917    3.6413    1.0313 H       1  UNL1        0.1488
     21 H          -0.9072    2.7971    0.5773 H       1  UNL1        0.1646
@<TRIPOS>BOND
     1    16    11    1
     2    17    12    1
     3    11    12   ar
     4    11    10   ar
     5    12     7   ar
     6     3     2    2
     7     5     4    1
     8    15    10    1
     9    10     9   ar
    10     7     1    1
    11     7     8   ar
    12     4     1    2
    13     4     6    1
    14     1     2    1
    15     2    18    1
    16    21    18    1
    17    18    20    1
    18    18    19    1
    19     9     8   ar
    20     9    14    1
    21     8    13    1
