@<TRIPOS>MOLECULE
GS-903-0.out
 26 26 0 0 0
SMALL
MULLIKEN_CHARGES
****
Gaussian 16 # wB97XD def2tzvp, opt=(calcfc, maxcycles=70, maxstep=10), freq=norama
@<TRIPOS>ATOM
      1 C          -1.8452    0.6117   -0.2389 C.2     1  UNL1       -0.1152
      2 C          -0.4085    0.8805    0.1343 C.2     1  UNL1        0.4001
      3 O          -0.1047    1.8709    0.7753 O.2     1  UNL1       -0.4591
      4 C          -2.4752   -0.4297    0.2959 C.2     1  UNL1        0.0701
      5 CL         -4.1600   -0.7314   -0.0951 Cl      1  UNL1       -0.1220
      6 C          -1.9351   -1.4312    1.2647 C.3     1  UNL1       -0.3861
      7 H          -2.5569   -1.4531    2.1608 H       1  UNL1        0.1514
      8 H          -1.9483   -2.4316    0.8283 H       1  UNL1        0.1537
      9 H          -0.9151   -1.1929    1.5592 H       1  UNL1        0.1450
     10 C          -2.4255    1.6436   -1.1564 C.3     1  UNL1       -0.3440
     11 H          -2.3204    2.6332   -0.7082 H       1  UNL1        0.1471
     12 H          -1.8824    1.6561   -2.1043 H       1  UNL1        0.1448
     13 H          -3.4767    1.4599   -1.3604 H       1  UNL1        0.1322
     14 N           0.4725   -0.0324   -0.3479 N.am    1  UNL1       -0.2737
     15 C           1.8693   -0.0956   -0.1949 C.ar    1  UNL1        0.3134
     16 C           2.5180   -1.1898   -0.7684 C.ar    1  UNL1       -0.3003
     17 C           3.8901   -1.3242   -0.6616 C.ar    1  UNL1       -0.0980
     18 C           4.6370   -0.3717    0.0187 C.ar    1  UNL1       -0.1834
     19 C           3.9905    0.7137    0.5876 C.ar    1  UNL1       -0.1094
     20 C           2.6138    0.8631    0.4881 C.ar    1  UNL1       -0.2942
     21 H           0.0638   -0.7808   -0.8841 H       1  UNL1        0.2797
     22 H           1.9420   -1.9387   -1.2992 H       1  UNL1        0.1465
     23 H           4.3766   -2.1795   -1.1127 H       1  UNL1        0.1472
     24 H           5.7107   -0.4764    0.1031 H       1  UNL1        0.1444
     25 H           4.5606    1.4642    1.1208 H       1  UNL1        0.1454
     26 H           2.1202    1.7115    0.9327 H       1  UNL1        0.1643
@<TRIPOS>BOND
     1    12    10    1
     2    13    10    1
     3    22    16    1
     4    10    11    1
     5    10     1    1
     6    23    17    1
     7    21    14    1
     8    16    17   ar
     9    16    15   ar
    10    17    18   ar
    11    14    15    1
    12    14     2   am
    13     1     2    1
    14     1     4    2
    15    15    20   ar
    16     5     4    1
    17    18    24    1
    18    18    19   ar
    19     2     3    2
    20     4     6    1
    21    20    19   ar
    22    20    26    1
    23    19    25    1
    24     8     6    1
    25     6     9    1
    26     6     7    1
