@<TRIPOS>MOLECULE
GS-997-1.out
 13 12 0 0 0
SMALL
MULLIKEN_CHARGES
****
Gaussian 16 # wB97XD def2tzvp, opt=(calcfc, maxcycles=70, maxstep=1), freq=noraman
@<TRIPOS>ATOM
      1 C           0.0963    0.5321    0.0572 C.2     1  UNL1       -0.0351
      2 C          -1.3663    0.2606    0.3329 C.2     1  UNL1        0.3669
      3 O          -1.8368    0.4856    1.4347 O.2     1  UNL1       -0.4531
      4 C           1.0266   -0.4154    0.0105 C.2     1  UNL1        0.0146
      5 CL          2.6944   -0.1047   -0.2219 Cl      1  UNL1       -0.0169
      6 CL          0.6203   -2.0758    0.2104 Cl      1  UNL1       -0.0168
      7 CL          0.4798    2.2008   -0.0977 Cl      1  UNL1       -0.0393
      8 N          -2.0608   -0.1960   -0.7109 N.am    1  UNL1       -0.3018
      9 C          -3.4728   -0.5037   -0.6138 C.3     1  UNL1       -0.2514
     10 H          -1.5840   -0.3475   -1.5826 H       1  UNL1        0.2908
     11 H          -3.8196   -0.8447   -1.5853 H       1  UNL1        0.1537
     12 H          -3.6462   -1.2882    0.1237 H       1  UNL1        0.1442
     13 H          -4.0390    0.3810   -0.3218 H       1  UNL1        0.1442
@<TRIPOS>BOND
     1    11     9    1
     2    10     8    1
     3     8     9    1
     4     8     2   am
     5     9    13    1
     6     9    12    1
     7     5     4    1
     8     7     1    1
     9     4     1    2
    10     4     6    1
    11     1     2    1
    12     2     3    2
