@<TRIPOS>MOLECULE
GS-908-0.out
 15 14 0 0 0
SMALL
MULLIKEN_CHARGES
****
Gaussian 16 # wB97XD def2tzvp, opt=(calcfc, maxcycles=70, maxstep=10), freq=norama
@<TRIPOS>ATOM
      1 C          -0.0639    0.2039    0.0643 C.2     1  UNL1       -0.1254
      2 C           1.3500    0.6768    0.1937 C.2     1  UNL1        0.4418
      3 O           1.6785    1.6420    0.8366 O.2     1  UNL1       -0.4060
      4 C          -1.0861    1.0541   -0.0597 C.2     1  UNL1        0.1038
      5 CL         -2.7098    0.4620   -0.1701 Cl      1  UNL1       -0.0649
      6 C          -1.0060    2.5426   -0.1406 C.3     1  UNL1       -0.3553
      7 H           0.0197    2.8891   -0.2045 H       1  UNL1        0.1508
      8 H          -1.5644    2.8845   -1.0123 H       1  UNL1        0.1525
      9 H          -1.4695    2.9811    0.7450 H       1  UNL1        0.1576
     10 BR         -0.2944   -1.6704    0.1035 Br      1  UNL1       -0.0326
     11 O           2.1944   -0.0902   -0.4770 O.3     1  UNL1       -0.2658
     12 C           3.5796    0.2617   -0.3911 C.3     1  UNL1       -0.1992
     13 H           4.1055   -0.4813   -0.9820 H       1  UNL1        0.1522
     14 H           3.7420    1.2581   -0.7991 H       1  UNL1        0.1452
     15 H           3.9124    0.2302    0.6452 H       1  UNL1        0.1453
@<TRIPOS>BOND
     1     8     6    1
     2    13    12    1
     3    14    12    1
     4    11    12    1
     5    11     2    1
     6    12    15    1
     7     7     6    1
     8     5     4    1
     9     6     4    1
    10     6     9    1
    11     4     1    2
    12     1    10    1
    13     1     2    1
    14     2     3    2
