@<TRIPOS>MOLECULE
GS-97-0.out
 24 24 0 0 0
SMALL
MULLIKEN_CHARGES
****
Gaussian 16 # wB97XD def2tzvp, opt=(calcfc, maxcycles=70, maxstep=10), freq=norama
@<TRIPOS>ATOM
      1 C          -1.6667   -0.2067   -0.1179 C.2     1  UNL1       -0.0012
      2 C          -3.0779    0.1582    0.0630 C.2     1  UNL1        0.1399
      3 O          -3.9993   -0.5959   -0.1764 O.2     1  UNL1       -0.4006
      4 C          -0.6827    0.6695    0.1713 C.2     1  UNL1        0.0148
      5 C           0.7478    0.2655    0.0771 C.ar    1  UNL1        0.1619
      6 C           1.2605   -0.7148    0.9232 C.ar    1  UNL1       -0.2444
      7 C           2.5989   -1.0710    0.8601 C.ar    1  UNL1       -0.1213
      8 C           3.4404   -0.4580   -0.0570 C.ar    1  UNL1       -0.1475
      9 C           2.9377    0.5185   -0.9049 C.ar    1  UNL1       -0.1475
     10 C           1.6026    0.8857   -0.8311 C.ar    1  UNL1       -0.2188
     11 H           0.6040   -1.1989    1.6359 H       1  UNL1        0.1529
     12 H           2.9839   -1.8311    1.5280 H       1  UNL1        0.1458
     13 H           4.4844   -0.7394   -0.1102 H       1  UNL1        0.1467
     14 H           3.5871    0.9990   -1.6258 H       1  UNL1        0.1452
     15 H           1.2194    1.6492   -1.4972 H       1  UNL1        0.1543
     16 C          -0.8609    2.0905    0.6259 C.3     1  UNL1       -0.3160
     17 H          -0.4332    2.2054    1.6248 H       1  UNL1        0.1495
     18 H          -0.2933    2.7523   -0.0318 H       1  UNL1        0.1466
     19 H          -1.8878    2.4397    0.6461 H       1  UNL1        0.1176
     20 C          -1.4340   -1.6006   -0.6302 C.3     1  UNL1       -0.3909
     21 H          -2.1115   -1.8077   -1.4592 H       1  UNL1        0.1377
     22 H          -0.4111   -1.7440   -0.9685 H       1  UNL1        0.1477
     23 H          -1.6452   -2.3425    0.1435 H       1  UNL1        0.1391
     24 H          -3.2965    1.1645    0.4484 H       1  UNL1        0.0885
@<TRIPOS>BOND
     1    14     9    1
     2    15    10    1
     3    21    20    1
     4    22    20    1
     5     9    10   ar
     6     9     8   ar
     7    10     5   ar
     8    20     1    1
     9    20    23    1
    10     3     2    2
    11     1     2    1
    12     1     4    2
    13    13     8    1
    14     8     7   ar
    15    18    16    1
    16     2    24    1
    17     5     4    1
    18     5     6   ar
    19     4    16    1
    20    16    19    1
    21    16    17    1
    22     7     6   ar
    23     7    12    1
    24     6    11    1
