@<TRIPOS>MOLECULE
GS-980-0.out
 15 14 0 0 0
SMALL
MULLIKEN_CHARGES
****
Gaussian 16 # wB97XD def2tzvp, opt=(calcfc, maxcycles=70, maxstep=10), freq=norama
@<TRIPOS>ATOM
      1 C           0.1095    0.8057    0.0237 C.2     1  UNL1       -0.0585
      2 C          -1.3182    0.4228    0.2884 C.2     1  UNL1        0.4188
      3 O          -1.8741    0.6549    1.3306 O.2     1  UNL1       -0.3984
      4 C           1.0469   -0.1315    0.0080 C.2     1  UNL1        0.0253
      5 CL          2.7236    0.1977   -0.2281 Cl      1  UNL1       -0.0467
      6 CL          0.7044   -1.8079    0.2528 Cl      1  UNL1       -0.0418
      7 C           0.3402    2.2755   -0.1393 C.3     1  UNL1       -0.3284
      8 H          -0.0272    2.8023    0.7433 H       1  UNL1        0.1541
      9 H           1.3929    2.5062   -0.2758 H       1  UNL1        0.1397
     10 H          -0.2166    2.6475   -1.0019 H       1  UNL1        0.1545
     11 O          -1.8908   -0.1356   -0.7655 O.3     1  UNL1       -0.2606
     12 C          -3.2641   -0.5197   -0.6175 C.3     1  UNL1       -0.2016
     13 H          -3.5538   -0.9411   -1.5748 H       1  UNL1        0.1524
     14 H          -3.3620   -1.2636    0.1717 H       1  UNL1        0.1455
     15 H          -3.8756    0.3498   -0.3821 H       1  UNL1        0.1456
@<TRIPOS>BOND
     1    13    12    1
     2    10     7    1
     3    11    12    1
     4    11     2    1
     5    12    15    1
     6    12    14    1
     7     9     7    1
     8     5     4    1
     9     7     1    1
    10     7     8    1
    11     4     1    2
    12     4     6    1
    13     1     2    1
    14     2     3    2
