@<TRIPOS>MOLECULE
GS-930-0.out
 11 10 0 0 0
SMALL
MULLIKEN_CHARGES
****
Gaussian 16 # wB97XD def2tzvp, opt=(calcfc, maxcycles=70, maxstep=10), freq=norama
@<TRIPOS>ATOM
      1 C          -0.8814    1.0419    0.0000 C.2     1  UNL1       -0.2636
      2 C          -2.1823    0.3225   -0.0000 C.2     1  UNL1        0.3124
      3 O          -3.1813    1.0146   -0.0003 O.2     1  UNL1       -0.3901
      4 C           0.3793    0.6156    0.0000 C.2     1  UNL1        0.1000
      5 CL          1.6655    1.7671    0.0001 Cl      1  UNL1       -0.0307
      6 BR          0.9962   -1.1567   -0.0001 Br      1  UNL1        0.0275
      7 H          -1.0142    2.1175   -0.0000 H       1  UNL1        0.1687
      8 C          -2.2826   -1.1730    0.0004 C.3     1  UNL1       -0.3862
      9 H          -1.7903   -1.5914    0.8791 H       1  UNL1        0.1598
     10 H          -3.3338   -1.4507    0.0005 H       1  UNL1        0.1424
     11 H          -1.7904   -1.5919   -0.8782 H       1  UNL1        0.1598
@<TRIPOS>BOND
     1    11     8    1
     2     3     2    2
     3     6     4    1
     4     2     1    1
     5     2     8    1
     6     7     1    1
     7     1     4    2
     8     4     5    1
     9     8    10    1
    10     8     9    1
