@<TRIPOS>MOLECULE
GS-938-0.out
 14 13 0 0 0
SMALL
MULLIKEN_CHARGES
****
Gaussian 16 # wB97XD def2tzvp, opt=(calcfc, maxcycles=70, maxstep=10), freq=norama
@<TRIPOS>ATOM
      1 C           0.8149    0.8512   -0.0425 C.2     1  UNL1       -0.0238
      2 C           1.8874   -0.2114   -0.1529 C.2     1  UNL1        0.2387
      3 O           2.3389   -0.4934   -1.2356 O.2     1  UNL1       -0.3573
      4 C          -0.4644    0.5153    0.0047 C.2     1  UNL1       -0.0269
      5 CL         -1.7571    1.6573    0.0970 Cl      1  UNL1       -0.0558
      6 BR         -1.0485   -1.2844   -0.0437 Br      1  UNL1       -0.0216
      7 C           1.3480    2.2510   -0.0308 C.3     1  UNL1       -0.3162
      8 H           1.8717    2.4472   -0.9687 H       1  UNL1        0.1561
      9 H           0.5577    2.9863    0.0930 H       1  UNL1        0.1405
     10 H           2.0701    2.3720    0.7795 H       1  UNL1        0.1494
     11 C           2.3885   -0.7920    1.1340 C.3     1  UNL1       -0.3454
     12 H           1.5613   -1.2426    1.6852 H       1  UNL1        0.1582
     13 H           3.1633   -1.5307    0.9431 H       1  UNL1        0.1439
     14 H           2.7861    0.0125    1.7576 H       1  UNL1        0.1601
@<TRIPOS>BOND
     1     3     2    2
     2     8     7    1
     3     2     1    1
     4     2    11    1
     5     6     4    1
     6     1     7    1
     7     1     4    2
     8     7     9    1
     9     7    10    1
    10     4     5    1
    11    13    11    1
    12    11    12    1
    13    11    14    1
