@<TRIPOS>MOLECULE
GS-951-1.out
 20 20 0 0 0
SMALL
MULLIKEN_CHARGES
****
Gaussian 16 # wB97XD def2tzvp, opt=(calcfc, maxcycles=70, maxstep=1), freq=noraman
@<TRIPOS>ATOM
      1 C           1.1303   -0.5006    0.1334 C.2     1  UNL1       -0.1326
      2 C          -0.2929   -0.4468    0.6444 C.2     1  UNL1        0.4383
      3 O          -0.5240   -0.6015    1.8257 O.2     1  UNL1       -0.4275
      4 C           1.8773    0.5761   -0.0758 C.2     1  UNL1       -0.0190
      5 CL          3.5125    0.5317   -0.5770 Cl      1  UNL1       -0.0132
      6 BR          1.1779    2.3055    0.1921 Br      1  UNL1        0.0191
      7 BR          1.7814   -2.2495   -0.0855 Br      1  UNL1        0.0134
      8 N          -1.2019   -0.2517   -0.3342 N.am    1  UNL1       -0.2601
      9 C          -2.6043   -0.1583   -0.2354 C.ar    1  UNL1        0.3082
     10 C          -3.3057    0.0569   -1.4212 C.ar    1  UNL1       -0.2934
     11 C          -4.6846    0.1595   -1.4056 C.ar    1  UNL1       -0.0979
     12 C          -5.3819    0.0492   -0.2100 C.ar    1  UNL1       -0.1797
     13 C          -4.6811   -0.1645    0.9658 C.ar    1  UNL1       -0.1095
     14 C          -3.2969   -0.2698    0.9669 C.ar    1  UNL1       -0.2880
     15 H          -0.8267   -0.1472   -1.2637 H       1  UNL1        0.2836
     16 H          -2.7682    0.1433   -2.3581 H       1  UNL1        0.1494
     17 H          -5.2152    0.3265   -2.3341 H       1  UNL1        0.1489
     18 H          -6.4609    0.1294   -0.1975 H       1  UNL1        0.1460
     19 H          -5.2130   -0.2522    1.9046 H       1  UNL1        0.1473
     20 H          -2.7611   -0.4361    1.8869 H       1  UNL1        0.1667
@<TRIPOS>BOND
     1    16    10    1
     2    17    11    1
     3    10    11   ar
     4    10     9   ar
     5    11    12   ar
     6    15     8    1
     7     5     4    1
     8     8     9    1
     9     8     2   am
    10     9    14   ar
    11    12    18    1
    12    12    13   ar
    13     7     1    1
    14     4     1    2
    15     4     6    1
    16     1     2    1
    17     2     3    2
    18    13    14   ar
    19    13    19    1
    20    14    20    1
