@<TRIPOS>MOLECULE
GS-978-0.out
 14 13 0 0 0
SMALL
MULLIKEN_CHARGES
****
Gaussian 16 # wB97XD def2tzvp, opt=(calcfc, maxcycles=70, maxstep=10), freq=norama
@<TRIPOS>ATOM
      1 C           0.3455    0.6975   -0.0273 C.2     1  UNL1       -0.0355
      2 C           1.7184    0.0729   -0.1511 C.2     1  UNL1        0.2327
      3 O           2.2652    0.0447   -1.2263 O.2     1  UNL1       -0.3586
      4 C          -0.7331   -0.0695   -0.0122 C.2     1  UNL1        0.0185
      5 CL         -2.3489    0.5321    0.0912 Cl      1  UNL1       -0.0531
      6 CL         -0.6489   -1.7964   -0.1160 Cl      1  UNL1       -0.0508
      7 C           0.3525    2.1930    0.0337 C.3     1  UNL1       -0.3126
      8 H           0.7901    2.5918   -0.8838 H       1  UNL1        0.1548
      9 H          -0.6481    2.5995    0.1536 H       1  UNL1        0.1400
     10 H           0.9711    2.5332    0.8670 H       1  UNL1        0.1494
     11 C           2.3553   -0.4035    1.1181 C.3     1  UNL1       -0.3442
     12 H           1.7173   -1.1478    1.5976 H       1  UNL1        0.1557
     13 H           2.4393    0.4377    1.8107 H       1  UNL1        0.1605
     14 H           3.3398   -0.8202    0.9188 H       1  UNL1        0.1431
@<TRIPOS>BOND
     1     3     2    2
     2     8     7    1
     3     2     1    1
     4     2    11    1
     5     6     4    1
     6     1     4    2
     7     1     7    1
     8     4     5    1
     9     7     9    1
    10     7    10    1
    11    14    11    1
    12    11    12    1
    13    11    13    1
