@<TRIPOS>MOLECULE
GS-977-0.out
 11 10 0 0 0
SMALL
MULLIKEN_CHARGES
****
Gaussian 16 # wB97XD def2tzvp, opt=(calcfc, maxcycles=70, maxstep=10), freq=norama
@<TRIPOS>ATOM
      1 C          -0.7577   -0.3469   -0.0000 C.2     1  UNL1       -0.0564
      2 C          -1.8282    0.6747   -0.0000 C.2     1  UNL1        0.1637
      3 O          -2.9997    0.3788    0.0000 O.2     1  UNL1       -0.3657
      4 C           0.5248    0.0334   -0.0000 C.2     1  UNL1        0.0960
      5 CL          1.8363   -1.0796    0.0000 Cl      1  UNL1       -0.0219
      6 CL          1.0583    1.6734   -0.0000 Cl      1  UNL1       -0.0237
      7 C          -1.2131   -1.7719   -0.0000 C.3     1  UNL1       -0.3435
      8 H          -1.8335   -1.9588   -0.8778 H       1  UNL1        0.1470
      9 H          -0.3830   -2.4713   -0.0000 H       1  UNL1        0.1401
     10 H          -1.8334   -1.9588    0.8778 H       1  UNL1        0.1470
     11 H          -1.5156    1.7285    0.0000 H       1  UNL1        0.1176
@<TRIPOS>BOND
     1     8     7    1
     2     9     7    1
     3     1     4    2
     4     1     7    1
     5     1     2    1
     6     4     6    1
     7     4     5    1
     8     7    10    1
     9     2    11    1
    10     2     3    2
