@<TRIPOS>MOLECULE
GS-9-1.out
 28 29 0 0 0
SMALL
MULLIKEN_CHARGES
****
Gaussian 16 # wB97XD def2tzvp, opt=(maxcycles=70, maxstep=1), freq=noraman, scrf=(
@<TRIPOS>ATOM
      1 C           0.1769    2.0234   -0.0770 C.2     1  UNL1       -0.1961
      2 C           1.4709    2.6697    0.0989 C.2     1  UNL1        0.1488
      3 O           1.6369    3.8674   -0.0206 O.2     1  UNL1       -0.3972
      4 C          -0.0295    0.6932   -0.0263 C.2     1  UNL1        0.1335
      5 C          -1.4042    0.1439   -0.0573 C.ar    1  UNL1        0.1214
      6 C          -2.4598    0.8129    0.5639 C.ar    1  UNL1       -0.2443
      7 C          -3.7460    0.3021    0.5122 C.ar    1  UNL1       -0.1412
      8 C          -3.9991   -0.8825   -0.1654 C.ar    1  UNL1       -0.1271
      9 C          -2.9565   -1.5592   -0.7824 C.ar    1  UNL1       -0.1541
     10 C          -1.6677   -1.0556   -0.7203 C.ar    1  UNL1       -0.2098
     11 H          -2.2680    1.7262    1.1125 H       1  UNL1        0.1636
     12 H          -4.5520    0.8266    1.0091 H       1  UNL1        0.1470
     13 H          -5.0048   -1.2808   -0.2057 H       1  UNL1        0.1491
     14 H          -3.1465   -2.4840   -1.3118 H       1  UNL1        0.1465
     15 H          -0.8590   -1.5905   -1.2018 H       1  UNL1        0.1671
     16 C           1.0832   -0.2862    0.0397 C.ar    1  UNL1        0.1512
     17 C           1.1032   -1.2500    1.0479 C.ar    1  UNL1       -0.2277
     18 C           2.1401   -2.1635    1.1249 C.ar    1  UNL1       -0.1404
     19 C           3.1587   -2.1436    0.1806 C.ar    1  UNL1       -0.1344
     20 C           3.1353   -1.2044   -0.8385 C.ar    1  UNL1       -0.1185
     21 C           2.1042   -0.2789   -0.9077 C.ar    1  UNL1       -0.2830
     22 H           0.3055   -1.2745    1.7801 H       1  UNL1        0.1582
     23 H           2.1523   -2.8965    1.9213 H       1  UNL1        0.1472
     24 H           3.9644   -2.8643    0.2366 H       1  UNL1        0.1492
     25 H           3.9187   -1.1912   -1.5853 H       1  UNL1        0.1478
     26 H           2.0794    0.4445   -1.7131 H       1  UNL1        0.1663
     27 H          -0.6601    2.6979   -0.2178 H       1  UNL1        0.1552
     28 H           2.3162    2.0206    0.3817 H       1  UNL1        0.1216
@<TRIPOS>BOND
     1    26    21    1
     2    25    20    1
     3    14     9    1
     4    15    10    1
     5    21    20   ar
     6    21    16   ar
     7    20    19   ar
     8     9    10   ar
     9     9     8   ar
    10    10     5   ar
    11    27     1    1
    12    13     8    1
    13     8     7   ar
    14     1     4    2
    15     1     2    1
    16     5     4    1
    17     5     6   ar
    18     4    16    1
    19     3     2    2
    20    16    17   ar
    21     2    28    1
    22    19    24    1
    23    19    18   ar
    24     7     6   ar
    25     7    12    1
    26     6    11    1
    27    17    18   ar
    28    17    22    1
    29    18    23    1
