@<TRIPOS>MOLECULE
GS-909-0.out
 16 15 0 0 0
SMALL
MULLIKEN_CHARGES
****
Gaussian 16 # wB97XD def2tzvp, opt=(calcfc, maxcycles=70, maxstep=10), freq=norama
@<TRIPOS>ATOM
      1 C          -0.0312    0.0730    0.1040 C.2     1  UNL1       -0.0987
      2 C           1.4521   -0.0424    0.3543 C.2     1  UNL1        0.3487
      3 O           1.8841   -0.4788    1.4095 O.2     1  UNL1       -0.4606
      4 C          -0.6741    1.2353    0.0870 C.2     1  UNL1        0.0551
      5 CL         -2.3916    1.3095   -0.1514 Cl      1  UNL1       -0.0814
      6 C          -0.0390    2.5737    0.2844 C.3     1  UNL1       -0.3684
      7 H          -0.1834    3.1909   -0.6036 H       1  UNL1        0.1574
      8 H          -0.5099    3.0821    1.1266 H       1  UNL1        0.1559
      9 H           1.0272    2.4852    0.4804 H       1  UNL1        0.1528
     10 BR         -0.8723   -1.6028   -0.0941 Br      1  UNL1       -0.0320
     11 N           2.2266    0.3504   -0.6631 N.am    1  UNL1       -0.3044
     12 C           3.6717    0.3077   -0.5871 C.3     1  UNL1       -0.2507
     13 H           1.7877    0.6744   -1.5070 H       1  UNL1        0.2891
     14 H           4.0785    0.6773   -1.5244 H       1  UNL1        0.1521
     15 H           4.0329    0.9331    0.2301 H       1  UNL1        0.1428
     16 H           4.0197   -0.7128   -0.4235 H       1  UNL1        0.1422
@<TRIPOS>BOND
     1    14    12    1
     2    13    11    1
     3    11    12    1
     4    11     2   am
     5     7     6    1
     6    12    16    1
     7    12    15    1
     8     5     4    1
     9    10     1    1
    10     4     1    2
    11     4     6    1
    12     1     2    1
    13     6     9    1
    14     6     8    1
    15     2     3    2
