@<TRIPOS>MOLECULE
GS-991-1.out
 20 20 0 0 0
SMALL
MULLIKEN_CHARGES
****
Gaussian 16 # wB97XD def2tzvp, opt=(calcfc, maxcycles=70, maxstep=1), freq=noraman
@<TRIPOS>ATOM
      1 C           1.2829   -0.1358    0.1499 C.2     1  UNL1       -0.1504
      2 C          -0.1426   -0.2526    0.6427 C.2     1  UNL1        0.4328
      3 O          -0.3673   -0.5794    1.7897 O.2     1  UNL1       -0.4290
      4 C           1.9242    1.0228    0.0514 C.2     1  UNL1        0.0365
      5 CL          3.5600    1.1868   -0.4233 Cl      1  UNL1       -0.0101
      6 CL          1.1335    2.5069    0.4260 Cl      1  UNL1       -0.0137
      7 BR          2.0999   -1.7856   -0.2117 Br      1  UNL1        0.0155
      8 N          -1.0598    0.0080   -0.3127 N.am    1  UNL1       -0.2626
      9 C          -2.4656   -0.0055   -0.2194 C.ar    1  UNL1        0.3064
     10 C          -3.1759    0.3149   -1.3757 C.ar    1  UNL1       -0.2922
     11 C          -4.5585    0.3246   -1.3634 C.ar    1  UNL1       -0.0983
     12 C          -5.2510    0.0153   -0.2004 C.ar    1  UNL1       -0.1797
     13 C          -4.5416   -0.3029    0.9462 C.ar    1  UNL1       -0.1099
     14 C          -3.1534   -0.3169    0.9501 C.ar    1  UNL1       -0.2871
     15 H          -0.6900    0.2575   -1.2163 H       1  UNL1        0.2839
     16 H          -2.6421    0.5573   -2.2871 H       1  UNL1        0.1492
     17 H          -5.0960    0.5757   -2.2687 H       1  UNL1        0.1489
     18 H          -6.3330    0.0229   -0.1905 H       1  UNL1        0.1459
     19 H          -5.0697   -0.5460    1.8595 H       1  UNL1        0.1472
     20 H          -2.6110   -0.5655    1.8474 H       1  UNL1        0.1667
@<TRIPOS>BOND
     1    16    10    1
     2    17    11    1
     3    10    11   ar
     4    10     9   ar
     5    11    12   ar
     6    15     8    1
     7     5     4    1
     8     8     9    1
     9     8     2   am
    10     9    14   ar
    11     7     1    1
    12    12    18    1
    13    12    13   ar
    14     4     1    2
    15     4     6    1
    16     1     2    1
    17     2     3    2
    18    13    14   ar
    19    13    19    1
    20    14    20    1
