@<TRIPOS>MOLECULE
GS-968-0.out
 28 29 0 0 0
SMALL
MULLIKEN_CHARGES
****
Gaussian 16 # wB97XD def2tzvp, opt=(calcfc, maxcycles=70, maxstep=10), freq=norama
@<TRIPOS>ATOM
      1 C          -0.5370    0.5094    0.3739 C.2     1  UNL1       -0.0488
      2 C           0.7493    0.1848    1.1063 C.2     1  UNL1        0.3174
      3 O           0.7857    0.2938    2.3107 O.2     1  UNL1       -0.3652
      4 C          -0.7810    1.7535   -0.0141 C.2     1  UNL1        0.0451
      5 CL         -2.2540    2.2726   -0.7410 Cl      1  UNL1       -0.0285
      6 CL          0.3752    3.0221    0.1880 Cl      1  UNL1       -0.0359
      7 C          -1.4545   -0.6407    0.1835 C.ar    1  UNL1        0.1734
      8 C          -1.8879   -1.0066   -1.0889 C.ar    1  UNL1       -0.2547
      9 C          -2.7186   -2.1026   -1.2552 C.ar    1  UNL1       -0.1363
     10 C          -3.1222   -2.8451   -0.1545 C.ar    1  UNL1       -0.1312
     11 C          -2.6865   -2.4909    1.1140 C.ar    1  UNL1       -0.1446
     12 C          -1.8507   -1.3982    1.2836 C.ar    1  UNL1       -0.2279
     13 H          -1.5707   -0.4347   -1.9515 H       1  UNL1        0.1747
     14 H          -3.0483   -2.3788   -2.2484 H       1  UNL1        0.1479
     15 H          -3.7717   -3.7010   -0.2860 H       1  UNL1        0.1493
     16 H          -2.9962   -3.0671    1.9762 H       1  UNL1        0.1479
     17 H          -1.5101   -1.1254    2.2743 H       1  UNL1        0.1542
     18 C           1.8939   -0.3204    0.3095 C.ar    1  UNL1        0.0601
     19 C           3.0403   -0.7524    0.9765 C.ar    1  UNL1       -0.2155
     20 C           4.1228   -1.2250    0.2589 C.ar    1  UNL1       -0.1223
     21 C           4.0694   -1.2680   -1.1297 C.ar    1  UNL1       -0.1122
     22 C           2.9331   -0.8385   -1.7993 C.ar    1  UNL1       -0.1675
     23 C           1.8462   -0.3663   -1.0818 C.ar    1  UNL1       -0.1571
     24 H           3.0673   -0.7132    2.0573 H       1  UNL1        0.1502
     25 H           5.0109   -1.5611    0.7779 H       1  UNL1        0.1518
     26 H           4.9183   -1.6380   -1.6906 H       1  UNL1        0.1540
     27 H           2.8933   -0.8707   -2.8800 H       1  UNL1        0.1501
     28 H           0.9633   -0.0280   -1.6081 H       1  UNL1        0.1718
@<TRIPOS>BOND
     1    27    22    1
     2    14     9    1
     3    13     8    1
     4    22    21   ar
     5    22    23   ar
     6    26    21    1
     7    28    23    1
     8     9     8   ar
     9     9    10   ar
    10    21    20   ar
    11     8     7   ar
    12    23    18   ar
    13     5     4    1
    14    15    10    1
    15    10    11   ar
    16     4     6    1
    17     4     1    2
    18     7     1    1
    19     7    12   ar
    20    20    25    1
    21    20    19   ar
    22    18    19   ar
    23    18     2    1
    24     1     2    1
    25    19    24    1
    26     2     3    2
    27    11    12   ar
    28    11    16    1
    29    12    17    1
