@<TRIPOS>MOLECULE
GS-923-0.out
 20 20 0 0 0
SMALL
MULLIKEN_CHARGES
****
Gaussian 16 # wB97XD def2tzvp, opt=(calcfc, maxcycles=70, maxstep=10), freq=norama
@<TRIPOS>ATOM
      1 C          -0.0378    0.3592    0.0120 C.2     1  UNL1       -0.0702
      2 C           0.3501    1.8206    0.0856 C.2     1  UNL1        0.2813
      3 O           0.4456    2.4926   -0.9264 O.2     1  UNL1       -0.4361
      4 C           0.8899   -0.5842   -0.0790 C.2     1  UNL1       -0.0084
      5 CL          0.5286   -2.2570   -0.2851 Cl      1  UNL1       -0.0350
      6 BR          2.7400   -0.2076   -0.0324 Br      1  UNL1       -0.0053
      7 C          -1.5000    0.0990    0.0044 C.ar    1  UNL1        0.2197
      8 C          -2.0931   -0.6387    1.0255 C.ar    1  UNL1       -0.2422
      9 C          -3.4626   -0.8504    1.0271 C.ar    1  UNL1       -0.1261
     10 C          -4.2500   -0.3273    0.0112 C.ar    1  UNL1       -0.1404
     11 C          -3.6637    0.4145   -1.0043 C.ar    1  UNL1       -0.1391
     12 C          -2.2948    0.6329   -1.0069 C.ar    1  UNL1       -0.2224
     13 H          -1.4801   -1.0428    1.8211 H       1  UNL1        0.1633
     14 H          -3.9153   -1.4239    1.8257 H       1  UNL1        0.1481
     15 H          -5.3194   -0.4948    0.0128 H       1  UNL1        0.1490
     16 H          -4.2734    0.8258   -1.7985 H       1  UNL1        0.1477
     17 H          -1.8367    1.2151   -1.7961 H       1  UNL1        0.1522
     18 N           0.5103    2.2987    1.3262 N.am    1  UNL1       -0.4228
     19 H           0.7411    3.2690    1.4591 H       1  UNL1        0.2859
     20 H           0.4357    1.7038    2.1320 H       1  UNL1        0.3008
@<TRIPOS>BOND
     1    16    11    1
     2    17    12    1
     3    12    11   ar
     4    12     7   ar
     5    11    10   ar
     6     3     2    2
     7     5     4    1
     8     4     6    1
     9     4     1    2
    10     7     1    1
    11     7     8   ar
    12    10    15    1
    13    10     9   ar
    14     1     2    1
    15     2    18   am
    16     8     9   ar
    17     8    13    1
    18     9    14    1
    19    18    19    1
    20    18    20    1
