@<TRIPOS>MOLECULE
GS-912-0.out
 21 21 0 0 0
SMALL
MULLIKEN_CHARGES
****
Gaussian 16 # wB97XD def2tzvp, opt=(calcfc, maxcycles=70, maxstep=10), freq=norama
@<TRIPOS>ATOM
      1 C           0.8534   -0.0427   -0.3400 C.2     1  UNL1       -0.0563
      2 C          -0.4409   -0.5156   -0.9639 C.2     1  UNL1        0.3361
      3 O          -0.3997   -1.1662   -1.9823 O.2     1  UNL1       -0.3574
      4 C           1.2756    1.2133   -0.4134 C.2     1  UNL1        0.0271
      5 CL          2.8000    1.6944    0.2587 Cl      1  UNL1       -0.0789
      6 C           0.5222    2.3273   -1.0637 C.3     1  UNL1       -0.3628
      7 H          -0.4162    1.9811   -1.4927 H       1  UNL1        0.1549
      8 H           0.3054    3.1070   -0.3319 H       1  UNL1        0.1588
      9 H           1.1252    2.7682   -1.8585 H       1  UNL1        0.1628
     10 BR          1.8125   -1.4405    0.4833 Br      1  UNL1       -0.0238
     11 C          -1.7141   -0.1791   -0.2790 C.ar    1  UNL1        0.0142
     12 C          -2.9170   -0.5014   -0.9085 C.ar    1  UNL1       -0.2024
     13 C          -4.1204   -0.2057   -0.2971 C.ar    1  UNL1       -0.1226
     14 C          -4.1325    0.4075    0.9506 C.ar    1  UNL1       -0.1181
     15 C          -2.9405    0.7255    1.5845 C.ar    1  UNL1       -0.1460
     16 C          -1.7325    0.4365    0.9709 C.ar    1  UNL1       -0.1759
     17 H          -2.8925   -0.9796   -1.8786 H       1  UNL1        0.1521
     18 H          -5.0521   -0.4512   -0.7898 H       1  UNL1        0.1523
     19 H          -5.0759    0.6377    1.4291 H       1  UNL1        0.1546
     20 H          -2.9510    1.2000    2.5568 H       1  UNL1        0.1523
     21 H          -0.8046    0.6869    1.4681 H       1  UNL1        0.1791
@<TRIPOS>BOND
     1     3     2    2
     2    17    12    1
     3     9     6    1
     4     7     6    1
     5     6     4    1
     6     6     8    1
     7     2     1    1
     8     2    11    1
     9    12    13   ar
    10    12    11   ar
    11    18    13    1
    12     4     1    2
    13     4     5    1
    14     1    10    1
    15    13    14   ar
    16    11    16   ar
    17    14    19    1
    18    14    15   ar
    19    16    21    1
    20    16    15   ar
    21    15    20    1
