@<TRIPOS>MOLECULE
GS-944-0.out
 21 21 0 0 0
SMALL
MULLIKEN_CHARGES
****
Gaussian 16 # wB97XD def2tzvp, opt=(calcfc, maxcycles=70, maxstep=10), freq=norama
@<TRIPOS>ATOM
      1 C           0.7643    1.1958    0.2341 C.2     1  UNL1       -0.0743
      2 C          -0.4753    0.8250    1.0169 C.2     1  UNL1        0.3933
      3 O          -0.4670    0.9618    2.2195 O.2     1  UNL1       -0.3706
      4 C           1.6439    0.2679   -0.1091 C.2     1  UNL1       -0.0255
      5 CL          3.1188    0.6026   -0.9418 Cl      1  UNL1       -0.0545
      6 BR          1.3924   -1.5659    0.2806 Br      1  UNL1       -0.0189
      7 C           0.8952    2.6626   -0.0377 C.3     1  UNL1       -0.3313
      8 H           0.9209    3.2077    0.9081 H       1  UNL1        0.1587
      9 H           1.7933    2.8931   -0.6042 H       1  UNL1        0.1402
     10 H           0.0253    3.0160   -0.5960 H       1  UNL1        0.1558
     11 C          -1.6781    0.3817    0.2679 C.ar    1  UNL1        0.0300
     12 C          -2.8299    0.0477    0.9798 C.ar    1  UNL1       -0.2165
     13 C          -3.9655   -0.3636    0.3076 C.ar    1  UNL1       -0.1176
     14 C          -3.9606   -0.4402   -1.0805 C.ar    1  UNL1       -0.1207
     15 C          -2.8193   -0.1065   -1.7948 C.ar    1  UNL1       -0.1505
     16 C          -1.6787    0.3020   -1.1229 C.ar    1  UNL1       -0.1879
     17 H          -2.8192    0.1135    2.0596 H       1  UNL1        0.1502
     18 H          -4.8573   -0.6254    0.8619 H       1  UNL1        0.1517
     19 H          -4.8510   -0.7616   -1.6059 H       1  UNL1        0.1539
     20 H          -2.8167   -0.1660   -2.8751 H       1  UNL1        0.1518
     21 H          -0.7882    0.5566   -1.6832 H       1  UNL1        0.1826
@<TRIPOS>BOND
     1    20    15    1
     2    15    16   ar
     3    15    14   ar
     4    21    16    1
     5    19    14    1
     6    16    11   ar
     7    14    13   ar
     8     5     4    1
     9     9     7    1
    10    10     7    1
    11     4     1    2
    12     4     6    1
    13     7     1    1
    14     7     8    1
    15     1     2    1
    16    11    12   ar
    17    11     2    1
    18    13    18    1
    19    13    12   ar
    20    12    17    1
    21     2     3    2
