@<TRIPOS>MOLECULE
GS-906-0.out
 14 13 0 0 0
SMALL
MULLIKEN_CHARGES
****
Gaussian 16 # wB97XD def2tzvp, opt=(calcfc, maxcycles=70, maxstep=10), freq=norama
@<TRIPOS>ATOM
      1 C          -0.1408    0.3139   -0.0401 C.2     1  UNL1       -0.1022
      2 C          -1.3271    1.2359   -0.0865 C.2     1  UNL1        0.2809
      3 O          -1.2693    2.2687   -0.7134 O.2     1  UNL1       -0.3750
      4 C           1.1178    0.7530    0.0549 C.2     1  UNL1        0.1043
      5 CL          2.4416   -0.3656    0.0989 Cl      1  UNL1       -0.0681
      6 C           1.5615    2.1749    0.1590 C.3     1  UNL1       -0.3458
      7 H           0.7245    2.8479    0.3102 H       1  UNL1        0.1497
      8 H           2.2673    2.2720    0.9841 H       1  UNL1        0.1496
      9 H           2.0781    2.4644   -0.7581 H       1  UNL1        0.1568
     10 BR         -0.5615   -1.5313   -0.1004 Br      1  UNL1       -0.0432
     11 C          -2.5667    0.8357    0.6625 C.3     1  UNL1       -0.3795
     12 H          -2.3244    0.3762    1.6206 H       1  UNL1        0.1593
     13 H          -3.1874    1.7170    0.8063 H       1  UNL1        0.1471
     14 H          -3.1261    0.1023    0.0783 H       1  UNL1        0.1659
@<TRIPOS>BOND
     1     9     6    1
     2     3     2    2
     3    10     1    1
     4     2     1    1
     5     2    11    1
     6     1     4    2
     7     4     5    1
     8     4     6    1
     9    14    11    1
    10     6     7    1
    11     6     8    1
    12    11    13    1
    13    11    12    1
