@<TRIPOS>MOLECULE
GS-982-0.out
 19 18 0 0 0
SMALL
MULLIKEN_CHARGES
****
Gaussian 16 # wB97XD def2tzvp, opt=(calcfc, maxcycles=70, maxstep=10), freq=norama
@<TRIPOS>ATOM
      1 C           0.2680    0.7926   -0.1624 C.2     1  UNL1       -0.1259
      2 C          -1.1231    0.3900   -0.5933 C.2     1  UNL1        0.3295
      3 O          -1.4112    0.4927   -1.7801 O.2     1  UNL1       -0.4851
      4 C           1.2220   -0.1222   -0.0757 C.2     1  UNL1        0.0297
      5 CL          2.8741    0.2340    0.2815 Cl      1  UNL1       -0.0553
      6 CL          0.9185   -1.8103   -0.3073 Cl      1  UNL1       -0.0516
      7 C           0.4579    2.2642    0.0293 C.3     1  UNL1       -0.3222
      8 H           0.1618    2.7907   -0.8800 H       1  UNL1        0.1538
      9 H          -0.1863    2.6194    0.8371 H       1  UNL1        0.1531
     10 H           1.4877    2.5180    0.2657 H       1  UNL1        0.1388
     11 N          -1.9837   -0.0033    0.3592 N.am    1  UNL1       -0.1005
     12 C          -3.3365   -0.3836    0.0030 C.3     1  UNL1       -0.2767
     13 C          -1.6538   -0.1280    1.7649 C.3     1  UNL1       -0.2970
     14 H          -3.4778   -0.2570   -1.0653 H       1  UNL1        0.1517
     15 H          -3.5118   -1.4275    0.2721 H       1  UNL1        0.1423
     16 H          -4.0518    0.2405    0.5420 H       1  UNL1        0.1438
     17 H          -0.6528    0.2422    1.9645 H       1  UNL1        0.1722
     18 H          -2.3650    0.4479    2.3598 H       1  UNL1        0.1495
     19 H          -1.7085   -1.1744    2.0735 H       1  UNL1        0.1500
@<TRIPOS>BOND
     1     3     2    2
     2    14    12    1
     3     8     7    1
     4     2     1    1
     5     2    11   am
     6     6     4    1
     7     1     4    2
     8     1     7    1
     9     4     5    1
    10    12    15    1
    11    12    11    1
    12    12    16    1
    13     7    10    1
    14     7     9    1
    15    11    13    1
    16    13    17    1
    17    13    19    1
    18    13    18    1
