@<TRIPOS>MOLECULE
GS-936-0.out
 18 18 0 0 0
SMALL
MULLIKEN_CHARGES
****
Gaussian 16 # wB97XD def2tzvp, opt=(calcfc, maxcycles=70, maxstep=10), freq=norama
@<TRIPOS>ATOM
      1 C          -0.3525    0.6245   -0.5239 C.2     1  UNL1       -0.3230
      2 C           0.6181   -0.5004   -0.4534 C.2     1  UNL1        0.3386
      3 O           0.2861   -1.6514   -0.6459 O.2     1  UNL1       -0.3834
      4 C          -1.6463    0.5729   -0.2276 C.2     1  UNL1        0.0871
      5 CL         -2.6348    1.9761   -0.3853 Cl      1  UNL1       -0.0298
      6 BR         -2.5692   -0.9247    0.4225 Br      1  UNL1        0.0309
      7 H           0.0324    1.5836   -0.8451 H       1  UNL1        0.2008
      8 C           2.0379   -0.1431   -0.1689 C.ar    1  UNL1        0.1172
      9 C           3.0333   -1.0653   -0.4890 C.ar    1  UNL1       -0.1951
     10 C           4.3598   -0.7808   -0.2208 C.ar    1  UNL1       -0.1226
     11 C           4.7028    0.4223    0.3842 C.ar    1  UNL1       -0.1281
     12 C           3.7173    1.3399    0.7166 C.ar    1  UNL1       -0.1432
     13 C           2.3889    1.0624    0.4347 C.ar    1  UNL1       -0.2245
     14 H           2.7532   -2.0010   -0.9546 H       1  UNL1        0.1515
     15 H           5.1293   -1.4957   -0.4816 H       1  UNL1        0.1508
     16 H           5.7409    0.6435    0.5973 H       1  UNL1        0.1527
     17 H           3.9822    2.2733    1.1955 H       1  UNL1        0.1515
     18 H           1.6288    1.7824    0.7088 H       1  UNL1        0.1684
@<TRIPOS>BOND
     1    14     9    1
     2     7     1    1
     3     3     2    2
     4     1     2    1
     5     1     4    2
     6     9    10   ar
     7     9     8   ar
     8    15    10    1
     9     2     8    1
    10     5     4    1
    11     4     6    1
    12    10    11   ar
    13     8    13   ar
    14    11    16    1
    15    11    12   ar
    16    13    18    1
    17    13    12   ar
    18    12    17    1
