@<TRIPOS>MOLECULE
GS-932-0.out
 12 11 0 0 0
SMALL
MULLIKEN_CHARGES
****
Gaussian 16 # wB97XD def2tzvp, opt=(calcfc, maxcycles=70, maxstep=10), freq=norama
@<TRIPOS>ATOM
      1 C           0.5383    0.9603   -0.0083 C.2     1  UNL1       -0.3010
      2 C           1.7034    0.0512   -0.0104 C.2     1  UNL1        0.4655
      3 O           1.6866   -1.1538   -0.0285 O.2     1  UNL1       -0.4079
      4 C          -0.7438    0.6109   -0.0031 C.2     1  UNL1        0.0837
      5 CL         -1.9641    1.8267   -0.0012 Cl      1  UNL1       -0.0269
      6 BR         -1.4235   -1.1336    0.0053 Br      1  UNL1        0.0392
      7 H           0.7681    2.0169   -0.0094 H       1  UNL1        0.1810
      8 O           2.8227    0.7758    0.0105 O.3     1  UNL1       -0.2737
      9 C           4.0506    0.0440    0.0130 C.3     1  UNL1       -0.1939
     10 H           4.8375    0.7917    0.0338 H       1  UNL1        0.1504
     11 H           4.1102   -0.5943    0.8936 H       1  UNL1        0.1417
     12 H           4.1306   -0.5663   -0.8857 H       1  UNL1        0.1418
@<TRIPOS>BOND
     1    12     9    1
     2     3     2    2
     3     2     1    1
     4     2     8    1
     5     7     1    1
     6     1     4    2
     7     4     5    1
     8     4     6    1
     9     8     9    1
    10     9    10    1
    11     9    11    1
