@<TRIPOS>MOLECULE
GS-947-0.out
 10 9 0 0 0
SMALL
MULLIKEN_CHARGES
****
Gaussian 16 # wB97XD def2tzvp, opt=(calcfc, maxcycles=70, maxstep=10), freq=norama
@<TRIPOS>ATOM
      1 C           0.5026    0.2429    0.0083 C.2     1  UNL1       -0.0523
      2 C           0.3829    1.7489    0.1096 C.2     1  UNL1        0.3102
      3 O           0.4482    2.2988    1.1918 O.2     1  UNL1       -0.4269
      4 C          -0.5369   -0.5809   -0.0075 C.2     1  UNL1       -0.0148
      5 CL         -0.4142   -2.2880   -0.0444 Cl      1  UNL1       -0.0162
      6 BR         -2.3000    0.0837    0.0302 Br      1  UNL1        0.0181
      7 BR          2.2806   -0.3654   -0.0016 Br      1  UNL1        0.0099
      8 N           0.2412    2.3780   -1.0621 N.am    1  UNL1       -0.4247
      9 H           0.1686    3.3815   -1.0792 H       1  UNL1        0.2917
     10 H           0.1843    1.8736   -1.9288 H       1  UNL1        0.3049
@<TRIPOS>BOND
     1    10     8    1
     2     9     8    1
     3     8     2   am
     4     5     4    1
     5     4     1    2
     6     4     6    1
     7     7     1    1
     8     1     2    1
     9     2     3    2
