@<TRIPOS>MOLECULE
GS-92-1.out
 25 25 0 0 0
SMALL
MULLIKEN_CHARGES
****
Gaussian 16 # wB97XD def2tzvp, opt=(maxcycles=70, maxstep=1), freq=noraman, scrf=(
@<TRIPOS>ATOM
      1 C          -0.9990   -0.2321   -0.1056 C.2     1  UNL1       -0.2720
      2 C          -2.4408    0.0564   -0.0583 C.2     1  UNL1        0.4464
      3 O          -2.9795    1.1306    0.0881 O.2     1  UNL1       -0.4462
      4 C          -0.0021    0.6275    0.1522 C.2     1  UNL1        0.0825
      5 C           1.4006    0.1468    0.0631 C.ar    1  UNL1        0.1727
      6 C           1.7529   -1.1418    0.4667 C.ar    1  UNL1       -0.2360
      7 C           3.0624   -1.5833    0.3680 C.ar    1  UNL1       -0.1465
      8 C           4.0454   -0.7455   -0.1389 C.ar    1  UNL1       -0.1354
      9 C           3.7104    0.5411   -0.5352 C.ar    1  UNL1       -0.1504
     10 C           2.4028    0.9866   -0.4252 C.ar    1  UNL1       -0.2261
     11 H           1.0002   -1.7977    0.8854 H       1  UNL1        0.1597
     12 H           3.3166   -2.5833    0.6959 H       1  UNL1        0.1457
     13 H           5.0685   -1.0907   -0.2168 H       1  UNL1        0.1473
     14 H           4.4704    1.2033   -0.9300 H       1  UNL1        0.1454
     15 H           2.1596    1.9937   -0.7383 H       1  UNL1        0.1555
     16 C          -0.1917    2.0707    0.5145 C.3     1  UNL1       -0.3927
     17 H           0.5506    2.3754    1.2524 H       1  UNL1        0.1504
     18 H          -0.0478    2.6989   -0.3690 H       1  UNL1        0.1537
     19 H          -1.1912    2.2612    0.8901 H       1  UNL1        0.1529
     20 H          -0.7619   -1.2505   -0.3835 H       1  UNL1        0.1564
     21 O          -3.1364   -1.0786   -0.2181 O.3     1  UNL1       -0.2845
     22 C          -4.5577   -0.9588   -0.2063 C.3     1  UNL1       -0.1973
     23 H          -4.9402   -1.9646   -0.3538 H       1  UNL1        0.1457
     24 H          -4.9016   -0.5615    0.7483 H       1  UNL1        0.1362
     25 H          -4.8942   -0.3058   -1.0112 H       1  UNL1        0.1366
@<TRIPOS>BOND
     1    25    22    1
     2    14     9    1
     3    15    10    1
     4     9    10   ar
     5     9     8   ar
     6    10     5   ar
     7    20     1    1
     8    18    16    1
     9    23    22    1
    10    21    22    1
    11    21     2    1
    12    13     8    1
    13    22    24    1
    14     8     7   ar
    15     1     2    1
    16     1     4    2
    17     2     3    2
    18     5     4    1
    19     5     6   ar
    20     4    16    1
    21     7     6   ar
    22     7    12    1
    23     6    11    1
    24    16    19    1
    25    16    17    1
