@<TRIPOS>MOLECULE
GS-995-0.out
 10 9 0 0 0
SMALL
MULLIKEN_CHARGES
****
Gaussian 16 # wB97XD def2tzvp, opt=(calcfc, maxcycles=70, maxstep=10), freq=norama
@<TRIPOS>ATOM
      1 C           0.3692   -0.3893   -0.0043 C.2     1  UNL1       -0.0011
      2 C           1.7114    0.3050    0.1073 C.2     1  UNL1        0.3093
      3 O           2.3006    0.3264    1.1703 O.2     1  UNL1       -0.4289
      4 C          -0.7954    0.2493    0.0097 C.2     1  UNL1        0.0173
      5 CL         -2.3150   -0.5383   -0.0327 Cl      1  UNL1       -0.0157
      6 CL         -0.8688    1.9660    0.0968 Cl      1  UNL1       -0.0152
      7 CL          0.4779   -2.1036   -0.0566 Cl      1  UNL1       -0.0362
      8 N           2.1691    0.8298   -1.0340 N.am    1  UNL1       -0.4285
      9 H           3.0595    1.2988   -1.0402 H       1  UNL1        0.2927
     10 H           1.6416    0.7824   -1.8875 H       1  UNL1        0.3063
@<TRIPOS>BOND
     1    10     8    1
     2     9     8    1
     3     8     2   am
     4     7     1    1
     5     5     4    1
     6     1     4    2
     7     1     2    1
     8     4     6    1
     9     2     3    2
