@<TRIPOS>MOLECULE
GS-973-1.out
 13 12 0 0 0
SMALL
MULLIKEN_CHARGES
****
Gaussian 16 # wB97XD def2tzvp, opt=(calcfc, maxcycles=70, maxstep=1), freq=noraman
@<TRIPOS>ATOM
      1 C          -0.1056   -0.9775   -0.1590 C.2     1  UNL1       -0.2544
      2 C           1.3456   -0.7315    0.1085 C.2     1  UNL1        0.4031
      3 O           1.9396   -1.4523    0.8997 O.2     1  UNL1       -0.4846
      4 C          -1.0972   -0.1103   -0.0314 C.2     1  UNL1        0.0748
      5 CL         -2.7417   -0.5776   -0.2682 Cl      1  UNL1       -0.0414
      6 CL         -0.9069    1.5451    0.4077 Cl      1  UNL1       -0.0299
      7 H          -0.3555   -2.0053   -0.3882 H       1  UNL1        0.1912
      8 N           1.9339    0.2574   -0.5732 N.am    1  UNL1       -0.3217
      9 C           3.3331    0.5822   -0.3966 C.3     1  UNL1       -0.2498
     10 H           1.3909    0.7862   -1.2323 H       1  UNL1        0.2821
     11 H           3.5788    1.4181   -1.0461 H       1  UNL1        0.1504
     12 H           3.5375    0.8622    0.6374 H       1  UNL1        0.1406
     13 H           3.9646   -0.2684   -0.6562 H       1  UNL1        0.1397
@<TRIPOS>BOND
     1    10     8    1
     2    11     9    1
     3    13     9    1
     4     8     9    1
     5     8     2   am
     6     9    12    1
     7     7     1    1
     8     5     4    1
     9     1     4    2
    10     1     2    1
    11     4     6    1
    12     2     3    2
