@<TRIPOS>MOLECULE
GS-981-0.out
 16 15 0 0 0
SMALL
MULLIKEN_CHARGES
****
Gaussian 16 # wB97XD def2tzvp, opt=(calcfc, maxcycles=70, maxstep=10), freq=norama
@<TRIPOS>ATOM
      1 C           0.1155    0.7985    0.0229 C.2     1  UNL1       -0.0923
      2 C          -1.3177    0.4189    0.3069 C.2     1  UNL1        0.3710
      3 O          -1.8136    0.6470    1.4010 O.2     1  UNL1       -0.4743
      4 C           1.0598   -0.1317    0.0041 C.2     1  UNL1        0.0268
      5 CL          2.7365    0.2063   -0.2436 Cl      1  UNL1       -0.0544
      6 CL          0.7384   -1.8139    0.2565 Cl      1  UNL1       -0.0482
      7 C           0.3454    2.2676   -0.1453 C.3     1  UNL1       -0.3256
      8 H          -0.0201    2.7933    0.7388 H       1  UNL1        0.1524
      9 H           1.3960    2.5049   -0.2883 H       1  UNL1        0.1369
     10 H          -0.2197    2.6367   -1.0040 H       1  UNL1        0.1502
     11 N          -1.9923   -0.1088   -0.7201 N.am    1  UNL1       -0.3066
     12 C          -3.3796   -0.5057   -0.6062 C.3     1  UNL1       -0.2522
     13 H          -1.5023   -0.2819   -1.5802 H       1  UNL1        0.2854
     14 H          -3.7272   -0.8370   -1.5810 H       1  UNL1        0.1507
     15 H          -3.4954   -1.3210    0.1098 H       1  UNL1        0.1400
     16 H          -3.9912    0.3345   -0.2768 H       1  UNL1        0.1402
@<TRIPOS>BOND
     1    14    12    1
     2    13    11    1
     3    10     7    1
     4    11    12    1
     5    11     2   am
     6    12    16    1
     7    12    15    1
     8     9     7    1
     9     5     4    1
    10     7     1    1
    11     7     8    1
    12     4     1    2
    13     4     6    1
    14     1     2    1
    15     2     3    2
