@<TRIPOS>MOLECULE
GS-925-0.out
 23 23 0 0 0
SMALL
MULLIKEN_CHARGES
****
Gaussian 16 # wB97XD def2tzvp, opt=(calcfc, maxcycles=70, maxstep=10), freq=norama
@<TRIPOS>ATOM
      1 C           0.0866    0.1221    0.1033 C.2     1  UNL1       -0.0701
      2 C          -0.4230    1.5349    0.2839 C.2     1  UNL1        0.3342
      3 O          -0.5380    2.0239    1.3976 O.2     1  UNL1       -0.4606
      4 C          -0.7612   -0.8964    0.0418 C.2     1  UNL1       -0.0124
      5 CL         -0.2676   -2.5457   -0.0439 Cl      1  UNL1       -0.0357
      6 BR         -2.6361   -0.6675    0.0810 Br      1  UNL1       -0.0069
      7 C           1.5642   -0.0131    0.0505 C.ar    1  UNL1        0.1922
      8 C           2.3401    0.4276    1.1199 C.ar    1  UNL1       -0.2243
      9 C           3.7218    0.3303    1.0641 C.ar    1  UNL1       -0.1420
     10 C           4.3394   -0.1959   -0.0614 C.ar    1  UNL1       -0.1361
     11 C           3.5703   -0.6246   -1.1339 C.ar    1  UNL1       -0.1326
     12 C           2.1885   -0.5338   -1.0799 C.ar    1  UNL1       -0.2401
     13 H           1.8573    0.8427    1.9952 H       1  UNL1        0.1516
     14 H           4.3169    0.6675    1.9030 H       1  UNL1        0.1472
     15 H           5.4186   -0.2688   -0.1043 H       1  UNL1        0.1487
     16 H           4.0466   -1.0291   -2.0178 H       1  UNL1        0.1475
     17 H           1.5899   -0.8629   -1.9198 H       1  UNL1        0.1638
     18 N          -0.6715    2.1936   -0.8520 N.am    1  UNL1       -0.2866
     19 C          -1.1391    3.5637   -0.8602 C.3     1  UNL1       -0.2577
     20 H          -0.5615    1.7070   -1.7244 H       1  UNL1        0.2859
     21 H          -0.4288    4.2148   -0.3499 H       1  UNL1        0.1415
     22 H          -1.2413    3.8884   -1.8921 H       1  UNL1        0.1514
     23 H          -2.1065    3.6465   -0.3627 H       1  UNL1        0.1413
@<TRIPOS>BOND
     1    16    11    1
     2    17    12    1
     3    22    19    1
     4    20    18    1
     5    11    12   ar
     6    11    10   ar
     7    12     7   ar
     8    19    18    1
     9    19    23    1
    10    19    21    1
    11    18     2   am
    12    15    10    1
    13    10     9   ar
    14     5     4    1
    15     4     6    1
    16     4     1    2
    17     7     1    1
    18     7     8   ar
    19     1     2    1
    20     2     3    2
    21     9     8   ar
    22     9    14    1
    23     8    13    1
