@<TRIPOS>MOLECULE
GS-99-0.out
 26 26 0 0 0
SMALL
MULLIKEN_CHARGES
****
Gaussian 16 # wB97XD def2tzvp, opt=(calcfc, maxcycles=70, maxstep=10), freq=norama
@<TRIPOS>ATOM
      1 C           1.3288   -0.3865   -0.2268 C.2     1  UNL1       -0.0157
      2 C           2.8018   -0.1729   -0.0079 C.2     1  UNL1        0.2448
      3 O           3.4517   -0.9146    0.7176 O.2     1  UNL1       -0.4670
      4 C           0.4209    0.4487    0.2829 C.2     1  UNL1        0.0042
      5 C          -1.0410    0.2013    0.1311 C.ar    1  UNL1        0.1342
      6 C          -1.8313    1.0814   -0.6052 C.ar    1  UNL1       -0.2112
      7 C          -3.1955    0.8683   -0.7346 C.ar    1  UNL1       -0.1586
      8 C          -3.7926   -0.2223   -0.1177 C.ar    1  UNL1       -0.1424
      9 C          -3.0163   -1.0984    0.6270 C.ar    1  UNL1       -0.1315
     10 C          -1.6508   -0.8868    0.7500 C.ar    1  UNL1       -0.2482
     11 H          -1.3729    1.9350   -1.0906 H       1  UNL1        0.1501
     12 H          -3.7937    1.5559   -1.3192 H       1  UNL1        0.1427
     13 H          -4.8580   -0.3875   -0.2161 H       1  UNL1        0.1448
     14 H          -3.4741   -1.9501    1.1145 H       1  UNL1        0.1432
     15 H          -1.0465   -1.5731    1.3311 H       1  UNL1        0.1491
     16 C           0.7571    1.6794    1.0819 C.3     1  UNL1       -0.3455
     17 H           0.3659    2.5732    0.5895 H       1  UNL1        0.1407
     18 H           0.2778    1.6239    2.0621 H       1  UNL1        0.1396
     19 H           1.8270    1.8129    1.2286 H       1  UNL1        0.1315
     20 C           1.0335   -1.6322   -1.0150 C.3     1  UNL1       -0.3623
     21 H           1.3217   -2.5206   -0.4485 H       1  UNL1        0.1404
     22 H          -0.0216   -1.7115   -1.2660 H       1  UNL1        0.1429
     23 H           1.6116   -1.6402   -1.9424 H       1  UNL1        0.1400
     24 N           3.3591    0.8372   -0.6986 N.am    1  UNL1       -0.4388
     25 H           4.3436    1.0223   -0.6070 H       1  UNL1        0.2779
     26 H           2.8036    1.4369   -1.2812 H       1  UNL1        0.2952
@<TRIPOS>BOND
     1    23    20    1
     2    12     7    1
     3    26    24    1
     4    22    20    1
     5    11     6    1
     6    20    21    1
     7    20     1    1
     8     7     6   ar
     9     7     8   ar
    10    24    25    1
    11    24     2   am
    12     6     5   ar
    13     1     2    1
    14     1     4    2
    15    13     8    1
    16     8     9   ar
    17     2     3    2
    18     5     4    1
    19     5    10   ar
    20     4    16    1
    21    17    16    1
    22     9    10   ar
    23     9    14    1
    24    10    15    1
    25    16    19    1
    26    16    18    1
