@<TRIPOS>MOLECULE
GS-948-0.out
 12 11 0 0 0
SMALL
MULLIKEN_CHARGES
****
Gaussian 16 # wB97XD def2tzvp, opt=(calcfc, maxcycles=70, maxstep=10), freq=norama
@<TRIPOS>ATOM
      1 C           0.5018   -0.0186    0.0835 C.2     1  UNL1       -0.0558
      2 C           0.3854    1.4597    0.3350 C.2     1  UNL1        0.4201
      3 O           0.4706    1.9446    1.4304 O.2     1  UNL1       -0.3751
      4 C          -0.5481   -0.8215   -0.0250 C.2     1  UNL1       -0.0257
      5 CL         -0.4450   -2.5124   -0.2536 Cl      1  UNL1       -0.0113
      6 BR         -2.2978   -0.1330    0.0819 Br      1  UNL1        0.0233
      7 BR          2.2755   -0.6255    0.0012 Br      1  UNL1        0.0190
      8 O           0.2158    2.1241   -0.7914 O.3     1  UNL1       -0.2483
      9 C           0.1007    3.5509   -0.6787 C.3     1  UNL1       -0.2018
     10 H          -0.0270    3.9125   -1.6937 H       1  UNL1        0.1558
     11 H          -0.7640    3.8071   -0.0688 H       1  UNL1        0.1496
     12 H           1.0044    3.9645   -0.2344 H       1  UNL1        0.1502
@<TRIPOS>BOND
     1    10     9    1
     2     8     9    1
     3     8     2    1
     4     9    12    1
     5     9    11    1
     6     5     4    1
     7     4     6    1
     8     4     1    2
     9     7     1    1
    10     1     2    1
    11     2     3    2
