@<TRIPOS>MOLECULE
GS-937-0.out
 11 10 0 0 0
SMALL
MULLIKEN_CHARGES
****
Gaussian 16 # wB97XD def2tzvp, opt=(calcfc, maxcycles=70, maxstep=10), freq=norama
@<TRIPOS>ATOM
      1 C           1.2326    0.1853    0.0001 C.2     1  UNL1       -0.0507
      2 C           1.7187   -1.2130    0.0001 C.2     1  UNL1        0.1724
      3 O           2.8916   -1.5013   -0.0001 O.2     1  UNL1       -0.3682
      4 C          -0.0802    0.4417    0.0000 C.2     1  UNL1        0.0665
      5 CL         -0.6755    2.0528   -0.0000 Cl      1  UNL1       -0.0184
      6 BR         -1.4551   -0.8492   -0.0000 Br      1  UNL1        0.0052
      7 C           2.2575    1.2799    0.0000 C.3     1  UNL1       -0.3778
      8 H           3.2526    0.8410   -0.0003 H       1  UNL1        0.1463
      9 H           2.1518    1.9143   -0.8809 H       1  UNL1        0.1512
     10 H           2.1522    1.9140    0.8812 H       1  UNL1        0.1512
     11 H           0.9507   -1.9999    0.0002 H       1  UNL1        0.1222
@<TRIPOS>BOND
     1     9     7    1
     2     8     7    1
     3     3     2    2
     4     5     4    1
     5     6     4    1
     6     4     1    2
     7     7     1    1
     8     7    10    1
     9     2     1    1
    10     2    11    1
