@<TRIPOS>MOLECULE
GS-955-0.out
 10 9 0 0 0
SMALL
MULLIKEN_CHARGES
****
Gaussian 16 # wB97XD def2tzvp, opt=(calcfc, maxcycles=70, maxstep=10), freq=norama
@<TRIPOS>ATOM
      1 C          -0.9193    0.1680    0.0001 C.2     1  UNL1        0.0183
      2 C          -1.3616   -1.2780    0.1048 C.2     1  UNL1        0.3089
      3 O          -1.6738   -1.7442    1.1831 O.2     1  UNL1       -0.4272
      4 C           0.3486    0.5612   -0.0102 C.2     1  UNL1       -0.0365
      5 CL          0.8318    2.2029   -0.0463 Cl      1  UNL1       -0.0189
      6 BR          1.7552   -0.6880    0.0396 Br      1  UNL1        0.0197
      7 CL         -2.2291    1.2838   -0.0136 Cl      1  UNL1       -0.0365
      8 N          -1.4080   -1.9355   -1.0582 N.am    1  UNL1       -0.4263
      9 H          -1.7050   -2.8970   -1.0712 H       1  UNL1        0.2927
     10 H          -1.1308   -1.5033   -1.9215 H       1  UNL1        0.3059
@<TRIPOS>BOND
     1    10     8    1
     2     9     8    1
     3     8     2   am
     4     5     4    1
     5     7     1    1
     6     4     1    2
     7     4     6    1
     8     1     2    1
     9     2     3    2
