@<TRIPOS>MOLECULE
GS-915-0.out
 13 12 0 0 0
SMALL
MULLIKEN_CHARGES
****
Gaussian 16 # wB97XD def2tzvp, opt=(calcfc, maxcycles=70, maxstep=10), freq=norama
@<TRIPOS>ATOM
      1 C           0.2703   -0.1343    0.0462 C.2     1  UNL1       -0.0549
      2 C           1.6485    0.4790    0.0656 C.2     1  UNL1        0.3338
      3 O           1.8536    1.5670    0.5789 O.2     1  UNL1       -0.4583
      4 C          -0.8475    0.5894   -0.0544 C.2     1  UNL1        0.0871
      5 CL         -2.3920   -0.1995   -0.0344 Cl      1  UNL1       -0.0748
      6 C          -0.9512    2.0690   -0.2118 C.3     1  UNL1       -0.3390
      7 H           0.0235    2.5215   -0.3561 H       1  UNL1        0.1515
      8 H          -1.5976    2.2944   -1.0607 H       1  UNL1        0.1478
      9 H          -1.4098    2.5013    0.6796 H       1  UNL1        0.1535
     10 CL          0.2222   -1.8668    0.1563 Cl      1  UNL1       -0.0808
     11 N           2.6172   -0.2454   -0.5145 N.am    1  UNL1       -0.4416
     12 H           3.5553    0.1153   -0.5080 H       1  UNL1        0.2882
     13 H           2.4463   -1.1424   -0.9310 H       1  UNL1        0.2874
@<TRIPOS>BOND
     1     8     6    1
     2    13    11    1
     3    11    12    1
     4    11     2   am
     5     7     6    1
     6     6     4    1
     7     6     9    1
     8     4     5    1
     9     4     1    2
    10     1     2    1
    11     1    10    1
    12     2     3    2
