@<TRIPOS>MOLECULE
GS-976-0.out
 18 18 0 0 0
SMALL
MULLIKEN_CHARGES
****
Gaussian 16 # wB97XD def2tzvp, opt=(calcfc, maxcycles=70, maxstep=10), freq=norama
@<TRIPOS>ATOM
      1 C          -0.8661    0.3383   -0.3989 C.2     1  UNL1       -0.3156
      2 C           0.1985   -0.6876   -0.2563 C.2     1  UNL1        0.3318
      3 O          -0.0387   -1.8775   -0.2902 O.2     1  UNL1       -0.3864
      4 C          -2.1490    0.1867   -0.0840 C.2     1  UNL1        0.1191
      5 CL         -3.2702    1.4738   -0.3272 Cl      1  UNL1       -0.0269
      6 CL         -2.8532   -1.2098    0.6086 Cl      1  UNL1        0.0034
      7 H          -0.5774    1.3021   -0.7943 H       1  UNL1        0.1984
      8 C           1.5958   -0.1860   -0.1019 C.ar    1  UNL1        0.1198
      9 C           2.6483   -1.0528   -0.3929 C.ar    1  UNL1       -0.1965
     10 C           3.9582   -0.6359   -0.2414 C.ar    1  UNL1       -0.1222
     11 C           4.2292    0.6471    0.2185 C.ar    1  UNL1       -0.1296
     12 C           3.1878    1.5114    0.5219 C.ar    1  UNL1       -0.1414
     13 C           1.8746    1.1003    0.3551 C.ar    1  UNL1       -0.2260
     14 H           2.4250   -2.0515   -0.7442 H       1  UNL1        0.1514
     15 H           4.7708   -1.3096   -0.4802 H       1  UNL1        0.1505
     16 H           5.2545    0.9723    0.3409 H       1  UNL1        0.1525
     17 H           3.3970    2.5078    0.8886 H       1  UNL1        0.1513
     18 H           1.0719    1.7816    0.6060 H       1  UNL1        0.1663
@<TRIPOS>BOND
     1     7     1    1
     2    14     9    1
     3    15    10    1
     4     1     2    1
     5     1     4    2
     6     9    10   ar
     7     9     8   ar
     8     5     4    1
     9     3     2    2
    10     2     8    1
    11    10    11   ar
    12     8    13   ar
    13     4     6    1
    14    11    16    1
    15    11    12   ar
    16    13    12   ar
    17    13    18    1
    18    12    17    1
