@<TRIPOS>MOLECULE
GS-928-0.out
 28 29 0 0 0
SMALL
MULLIKEN_CHARGES
****
Gaussian 16 # wB97XD def2tzvp, opt=(calcfc, maxcycles=70, maxstep=10), freq=norama
@<TRIPOS>ATOM
      1 C           0.5551    0.2715    0.3469 C.2     1  UNL1       -0.0372
      2 C          -0.6343   -0.3049    1.0886 C.2     1  UNL1        0.3395
      3 O          -0.6836   -0.1995    2.2929 O.2     1  UNL1       -0.3652
      4 C           0.5452    1.5298   -0.0703 C.2     1  UNL1       -0.0015
      5 CL          1.8922    2.3106   -0.8076 Cl      1  UNL1       -0.0312
      6 BR         -0.9729    2.6396    0.1132 Br      1  UNL1       -0.0060
      7 C           1.6916   -0.6698    0.1821 C.ar    1  UNL1        0.1621
      8 C           2.2483   -1.2850    1.3010 C.ar    1  UNL1       -0.2261
      9 C           3.2918   -2.1856    1.1547 C.ar    1  UNL1       -0.1461
     10 C           3.7780   -2.4902   -0.1083 C.ar    1  UNL1       -0.1300
     11 C           3.2171   -1.8905   -1.2270 C.ar    1  UNL1       -0.1379
     12 C           2.1783   -0.9852   -1.0843 C.ar    1  UNL1       -0.2520
     13 H           1.8679   -1.0514    2.2872 H       1  UNL1        0.1542
     14 H           3.7242   -2.6512    2.0309 H       1  UNL1        0.1479
     15 H           4.5900   -3.1970   -0.2215 H       1  UNL1        0.1494
     16 H           3.5868   -2.1297   -2.2158 H       1  UNL1        0.1480
     17 H           1.7407   -0.5243   -1.9605 H       1  UNL1        0.1748
     18 C          -1.6540   -1.0414    0.3025 C.ar    1  UNL1        0.0581
     19 C          -1.6030   -1.0897   -1.0887 C.ar    1  UNL1       -0.1591
     20 C          -2.5719   -1.7824   -1.7960 C.ar    1  UNL1       -0.1674
     21 C          -3.5929   -2.4305   -1.1165 C.ar    1  UNL1       -0.1128
     22 C          -3.6490   -2.3860    0.2719 C.ar    1  UNL1       -0.1220
     23 C          -2.6843   -1.6938    0.9794 C.ar    1  UNL1       -0.2178
     24 H          -0.8111   -0.5813   -1.6228 H       1  UNL1        0.1724
     25 H          -2.5302   -1.8159   -2.8766 H       1  UNL1        0.1501
     26 H          -4.3493   -2.9727   -1.6694 H       1  UNL1        0.1539
     27 H          -4.4467   -2.8929    0.7987 H       1  UNL1        0.1518
     28 H          -2.7153   -1.6508    2.0600 H       1  UNL1        0.1500
@<TRIPOS>BOND
     1    25    20    1
     2    16    11    1
     3    17    12    1
     4    20    21   ar
     5    20    19   ar
     6    26    21    1
     7    24    19    1
     8    11    12   ar
     9    11    10   ar
    10    21    22   ar
    11    19    18   ar
    12    12     7   ar
    13     5     4    1
    14    15    10    1
    15    10     9   ar
    16     4     6    1
    17     4     1    2
    18     7     1    1
    19     7     8   ar
    20    22    27    1
    21    22    23   ar
    22    18    23   ar
    23    18     2    1
    24     1     2    1
    25    23    28    1
    26     2     3    2
    27     9     8   ar
    28     9    14    1
    29     8    13    1
