@<TRIPOS>MOLECULE
GS-904-0.out
 24 24 0 0 0
SMALL
MULLIKEN_CHARGES
****
Gaussian 16 # wB97XD def2tzvp, opt=(calcfc, maxcycles=70, maxstep=10), freq=norama
@<TRIPOS>ATOM
      1 C          -1.1225    0.0831    0.5367 C.2     1  UNL1       -0.0647
      2 C           0.0826    0.9658    0.3757 C.2     1  UNL1        0.2856
      3 O           0.0018    2.1709    0.4895 O.2     1  UNL1       -0.3831
      4 C          -2.1401    0.2109   -0.3094 C.2     1  UNL1        0.0931
      5 CL         -3.5446   -0.8152   -0.0918 Cl      1  UNL1       -0.1171
      6 C          -2.2602    1.1161   -1.4887 C.3     1  UNL1       -0.3678
      7 H          -3.0938    1.8074   -1.3527 H       1  UNL1        0.1487
      8 H          -1.3518    1.6956   -1.6353 H       1  UNL1        0.1438
      9 H          -2.4573    0.5328   -2.3895 H       1  UNL1        0.1469
     10 C          -1.0805   -0.8956    1.6798 C.3     1  UNL1       -0.3938
     11 H          -0.1356   -0.8299    2.2173 H       1  UNL1        0.1522
     12 H          -1.8861   -0.6883    2.3860 H       1  UNL1        0.1573
     13 H          -1.2021   -1.9226    1.3306 H       1  UNL1        0.1516
     14 C           1.3883    0.2987    0.1039 C.ar    1  UNL1        0.0753
     15 C           2.5703    1.0041    0.3225 C.ar    1  UNL1       -0.2078
     16 C           3.7921    0.4149    0.0514 C.ar    1  UNL1       -0.1270
     17 C           3.8416   -0.8798   -0.4514 C.ar    1  UNL1       -0.1223
     18 C           2.6686   -1.5849   -0.6790 C.ar    1  UNL1       -0.1557
     19 C           1.4447   -0.9998   -0.3962 C.ar    1  UNL1       -0.1910
     20 H           2.5175    2.0133    0.7092 H       1  UNL1        0.1481
     21 H           4.7083    0.9625    0.2303 H       1  UNL1        0.1501
     22 H           4.7981   -1.3392   -0.6664 H       1  UNL1        0.1522
     23 H           2.7071   -2.5907   -1.0761 H       1  UNL1        0.1499
     24 H           0.5304   -1.5504   -0.5790 H       1  UNL1        0.1755
@<TRIPOS>BOND
     1     9     6    1
     2     8     6    1
     3     6     7    1
     4     6     4    1
     5    23    18    1
     6    18    17   ar
     7    18    19   ar
     8    22    17    1
     9    24    19    1
    10    17    16   ar
    11    19    14   ar
    12     4     5    1
    13     4     1    2
    14    16    21    1
    15    16    15   ar
    16    14    15   ar
    17    14     2    1
    18    15    20    1
    19     2     3    2
    20     2     1    1
    21     1    10    1
    22    13    10    1
    23    10    11    1
    24    10    12    1
