@<TRIPOS>MOLECULE
GS-954-0.out
 11 10 0 0 0
SMALL
MULLIKEN_CHARGES
****
Gaussian 16 # wB97XD def2tzvp, opt=(calcfc, maxcycles=70, maxstep=10), freq=norama
@<TRIPOS>ATOM
      1 C           0.8848    0.1789   -0.1025 C.2     1  UNL1       -0.0144
      2 C           1.4235   -1.2331   -0.1406 C.2     1  UNL1        0.2869
      3 O           0.8912   -2.0675   -0.8276 O.2     1  UNL1       -0.3455
      4 C          -0.4069    0.5055   -0.0263 C.2     1  UNL1       -0.0030
      5 CL         -0.9461    2.1306    0.0343 Cl      1  UNL1       -0.0130
      6 BR         -1.7930   -0.7556    0.0863 Br      1  UNL1        0.0336
      7 CL          2.0973    1.4090   -0.1298 Cl      1  UNL1       -0.0448
      8 C           2.6362   -1.5214    0.6948 C.3     1  UNL1       -0.3805
      9 H           2.5715   -1.0330    1.6673 H       1  UNL1        0.1628
     10 H           2.7337   -2.5978    0.8118 H       1  UNL1        0.1497
     11 H           3.5257   -1.1366    0.1920 H       1  UNL1        0.1682
@<TRIPOS>BOND
     1     3     2    2
     2     2     1    1
     3     2     8    1
     4     7     1    1
     5     1     4    2
     6     4     5    1
     7     4     6    1
     8    11     8    1
     9     8    10    1
    10     8     9    1
