@<TRIPOS>MOLECULE
GS-967-0.out
 30 31 0 0 0
SMALL
MULLIKEN_CHARGES
****
Gaussian 16 # wB97XD def2tzvp, opt=(calcfc, maxcycles=70, maxstep=10), freq=norama
@<TRIPOS>ATOM
      1 C          -1.0453   -0.4359    0.2296 C.2     1  UNL1       -0.1022
      2 C           0.3729   -0.2135    0.7100 C.2     1  UNL1        0.3762
      3 O           0.6243   -0.1514    1.8978 O.2     1  UNL1       -0.4420
      4 C          -1.4814   -1.6702    0.0128 C.2     1  UNL1        0.0418
      5 CL         -3.1051   -2.0537   -0.4140 Cl      1  UNL1       -0.0279
      6 CL         -0.4616   -3.0552    0.1697 Cl      1  UNL1       -0.0321
      7 C          -1.8660    0.7910    0.0802 C.ar    1  UNL1        0.1824
      8 C          -2.0540    1.6378    1.1701 C.ar    1  UNL1       -0.2252
      9 C          -2.7941    2.8011    1.0282 C.ar    1  UNL1       -0.1431
     10 C          -3.3419    3.1339   -0.2024 C.ar    1  UNL1       -0.1317
     11 C          -3.1467    2.2991   -1.2934 C.ar    1  UNL1       -0.1358
     12 C          -2.4112    1.1328   -1.1547 C.ar    1  UNL1       -0.2387
     13 H          -1.6236    1.3802    2.1293 H       1  UNL1        0.1534
     14 H          -2.9424    3.4492    1.8823 H       1  UNL1        0.1476
     15 H          -3.9174    4.0441   -0.3119 H       1  UNL1        0.1492
     16 H          -3.5652    2.5571   -2.2577 H       1  UNL1        0.1478
     17 H          -2.2537    0.4862   -2.0085 H       1  UNL1        0.1653
     18 N           1.2589   -0.0465   -0.2981 N.am    1  UNL1       -0.2472
     19 C           2.6413    0.2135   -0.2348 C.ar    1  UNL1        0.3048
     20 C           3.3248    0.2928   -1.4480 C.ar    1  UNL1       -0.2982
     21 C           4.6837    0.5482   -1.4679 C.ar    1  UNL1       -0.0987
     22 C           5.3806    0.7277   -0.2805 C.ar    1  UNL1       -0.1815
     23 C           4.6986    0.6485    0.9228 C.ar    1  UNL1       -0.1117
     24 C           3.3345    0.3933    0.9593 C.ar    1  UNL1       -0.2853
     25 H           0.8796   -0.1369   -1.2272 H       1  UNL1        0.2799
     26 H           2.7881    0.1530   -2.3789 H       1  UNL1        0.1482
     27 H           5.1992    0.6065   -2.4179 H       1  UNL1        0.1480
     28 H           6.4441    0.9272   -0.2955 H       1  UNL1        0.1451
     29 H           5.2298    0.7869    1.8560 H       1  UNL1        0.1463
     30 H           2.8130    0.3336    1.9004 H       1  UNL1        0.1652
@<TRIPOS>BOND
     1    27    21    1
     2    26    20    1
     3    16    11    1
     4    17    12    1
     5    21    20   ar
     6    21    22   ar
     7    20    19   ar
     8    11    12   ar
     9    11    10   ar
    10    25    18    1
    11    12     7   ar
    12     5     4    1
    13    15    10    1
    14    18    19    1
    15    18     2   am
    16    28    22    1
    17    22    23   ar
    18    19    24   ar
    19    10     9   ar
    20     4     6    1
    21     4     1    2
    22     7     1    1
    23     7     8   ar
    24     1     2    1
    25     2     3    2
    26    23    24   ar
    27    23    29    1
    28    24    30    1
    29     9     8   ar
    30     9    14    1
    31     8    13    1
