@<TRIPOS>MOLECULE
GS-969-0.out
 8 7 0 0 0
SMALL
MULLIKEN_CHARGES
****
Gaussian 16 # wB97XD def2tzvp, opt=(calcfc, maxcycles=70, maxstep=10), freq=norama
@<TRIPOS>ATOM
      1 C           0.7973   -0.6875   -0.0000 C.2     1  UNL1       -0.1998
      2 C           2.0655    0.0456    0.0000 C.2     1  UNL1        0.1757
      3 O           3.1360   -0.5172    0.0000 O.2     1  UNL1       -0.3670
      4 C          -0.4033   -0.1104   -0.0000 C.2     1  UNL1        0.1074
      5 CL         -1.8454   -1.0396    0.0000 Cl      1  UNL1       -0.0098
      6 CL         -0.6667    1.5851   -0.0000 Cl      1  UNL1       -0.0037
      7 H           0.8556   -1.7681   -0.0000 H       1  UNL1        0.1825
      8 H           2.0052    1.1453    0.0000 H       1  UNL1        0.1148
@<TRIPOS>BOND
     1     1     7    1
     2     1     2    1
     3     1     4    2
     4     2     3    2
     5     2     8    1
     6     4     5    1
     7     4     6    1
