@<TRIPOS>MOLECULE
GS-940-0.out
 15 14 0 0 0
SMALL
MULLIKEN_CHARGES
****
Gaussian 16 # wB97XD def2tzvp, opt=(calcfc, maxcycles=70, maxstep=10), freq=norama
@<TRIPOS>ATOM
      1 C          -0.1988    1.1355    0.0635 C.2     1  UNL1       -0.0488
      2 C          -1.5338    0.4941    0.3148 C.2     1  UNL1        0.4270
      3 O          -2.0563    0.4692    1.3987 O.2     1  UNL1       -0.3954
      4 C           0.8880    0.3832   -0.0305 C.2     1  UNL1       -0.0241
      5 CL          2.4719    1.0248   -0.2627 Cl      1  UNL1       -0.0495
      6 BR          0.8440   -1.5014    0.1042 Br      1  UNL1       -0.0125
      7 C          -0.2374    2.6310   -0.0038 C.3     1  UNL1       -0.3317
      8 H          -0.6622    3.0268    0.9206 H       1  UNL1        0.1555
      9 H           0.7523    3.0549   -0.1479 H       1  UNL1        0.1400
     10 H          -0.8812    2.9492   -0.8264 H       1  UNL1        0.1554
     11 O          -2.0752    0.0264   -0.7980 O.3     1  UNL1       -0.2591
     12 C          -3.3655   -0.5862   -0.6718 C.3     1  UNL1       -0.2018
     13 H          -3.6403   -0.8964   -1.6748 H       1  UNL1        0.1529
     14 H          -3.3068   -1.4479   -0.0086 H       1  UNL1        0.1459
     15 H          -4.0865    0.1307   -0.2823 H       1  UNL1        0.1464
@<TRIPOS>BOND
     1    13    12    1
     2    10     7    1
     3    11    12    1
     4    11     2    1
     5    12    15    1
     6    12    14    1
     7     5     4    1
     8     9     7    1
     9     4     1    2
    10     4     6    1
    11     7     1    1
    12     7     8    1
    13     1     2    1
    14     2     3    2
