@<TRIPOS>MOLECULE
GS-91-0.out
 23 23 0 0 0
SMALL
MULLIKEN_CHARGES
****
Gaussian 16 # wB97XD def2tzvp, opt=(calcfc, maxcycles=70, maxstep=10), freq=norama
@<TRIPOS>ATOM
      1 C          -1.4046   -0.4251   -0.1732 C.2     1  UNL1       -0.2397
      2 C          -2.8792   -0.2700   -0.1448 C.2     1  UNL1        0.3490
      3 O          -3.4748    0.7975   -0.0411 O.2     1  UNL1       -0.4940
      4 C          -0.4884    0.4998    0.1429 C.2     1  UNL1        0.0390
      5 C           0.9525    0.1419    0.0627 C.ar    1  UNL1        0.1752
      6 C           1.4095   -1.1215    0.4400 C.ar    1  UNL1       -0.2419
      7 C           2.7533   -1.4477    0.3493 C.ar    1  UNL1       -0.1457
      8 C           3.6677   -0.5165   -0.1216 C.ar    1  UNL1       -0.1388
      9 C           3.2285    0.7468   -0.4904 C.ar    1  UNL1       -0.1497
     10 C           1.8860    1.0759   -0.3891 C.ar    1  UNL1       -0.2246
     11 H           0.7102   -1.8495    0.8314 H       1  UNL1        0.1599
     12 H           3.0877   -2.4307    0.6561 H       1  UNL1        0.1449
     13 H           4.7175   -0.7711   -0.1929 H       1  UNL1        0.1464
     14 H           3.9340    1.4817   -0.8569 H       1  UNL1        0.1447
     15 H           1.5612    2.0665   -0.6806 H       1  UNL1        0.1531
     16 C          -0.8003    1.9043    0.5708 C.3     1  UNL1       -0.3861
     17 H          -0.1057    2.2237    1.3485 H       1  UNL1        0.1451
     18 H          -0.6790    2.5897   -0.2726 H       1  UNL1        0.1487
     19 H          -1.8234    1.9959    0.9189 H       1  UNL1        0.1496
     20 H          -1.0545   -1.4012   -0.4890 H       1  UNL1        0.1595
     21 N          -3.5516   -1.4376   -0.2648 N.am    1  UNL1       -0.4558
     22 H          -4.5561   -1.4259   -0.2452 H       1  UNL1        0.2750
     23 H          -3.0832   -2.3234   -0.3149 H       1  UNL1        0.2862
@<TRIPOS>BOND
     1    14     9    1
     2    15    10    1
     3     9    10   ar
     4     9     8   ar
     5    20     1    1
     6    10     5   ar
     7    23    21    1
     8    18    16    1
     9    21    22    1
    10    21     2   am
    11    13     8    1
    12     1     2    1
    13     1     4    2
    14     2     3    2
    15     8     7   ar
    16     5     4    1
    17     5     6   ar
    18     4    16    1
    19     7     6   ar
    20     7    12    1
    21     6    11    1
    22    16    19    1
    23    16    17    1
