@<TRIPOS>MOLECULE
GS-989-0.out
 13 12 0 0 0
SMALL
MULLIKEN_CHARGES
****
Gaussian 16 # wB97XD def2tzvp, opt=(calcfc, maxcycles=70, maxstep=10), freq=norama
@<TRIPOS>ATOM
      1 C          -0.0421   -0.1204    0.0844 C.2     1  UNL1       -0.1123
      2 C           1.4448   -0.1538    0.3553 C.2     1  UNL1        0.3745
      3 O           1.8640   -0.3696    1.4797 O.2     1  UNL1       -0.4532
      4 C          -0.7435    1.0042    0.0099 C.2     1  UNL1        0.0355
      5 CL         -2.4392    1.0776   -0.2182 Cl      1  UNL1       -0.0146
      6 CL          0.0244    2.5396    0.1615 Cl      1  UNL1       -0.0175
      7 BR         -0.8335   -1.8181   -0.0379 Br      1  UNL1        0.0083
      8 N           2.2160    0.0363   -0.7174 N.am    1  UNL1       -0.2991
      9 C           3.6616    0.0281   -0.6301 C.3     1  UNL1       -0.2526
     10 H           1.7788    0.2171   -1.6042 H       1  UNL1        0.2899
     11 H           4.0118   -0.9105   -0.2006 H       1  UNL1        0.1438
     12 H           4.0691    0.1362   -1.6313 H       1  UNL1        0.1535
     13 H           4.0174    0.8505   -0.0079 H       1  UNL1        0.1439
@<TRIPOS>BOND
     1    12     9    1
     2    10     8    1
     3     8     9    1
     4     8     2   am
     5     9    11    1
     6     9    13    1
     7     5     4    1
     8     7     1    1
     9     4     1    2
    10     4     6    1
    11     1     2    1
    12     2     3    2
