@<TRIPOS>MOLECULE
GS-11-1.out
 30 31 0 0 0
SMALL
MULLIKEN_CHARGES
****
Gaussian 16 # wB97XD def2tzvp, opt=(maxcycles=70, maxstep=1), freq=noraman, scrf=(
@<TRIPOS>ATOM
      1 C          -0.2596    1.8473   -0.0603 C.2     1  UNL1       -0.2126
      2 C          -1.6400    2.4064   -0.0195 C.2     1  UNL1        0.2763
      3 O          -1.9369    3.3527   -0.7403 O.2     1  UNL1       -0.4771
      4 C           0.1176    0.5644   -0.0188 C.2     1  UNL1        0.1653
      5 C           1.5596    0.2077   -0.0405 C.ar    1  UNL1        0.1046
      6 C           2.5037    0.9848    0.6305 C.ar    1  UNL1       -0.2467
      7 C           3.8494    0.6570    0.5864 C.ar    1  UNL1       -0.1357
      8 C           4.2738   -0.4541   -0.1285 C.ar    1  UNL1       -0.1370
      9 C           3.3424   -1.2402   -0.7919 C.ar    1  UNL1       -0.1496
     10 C           1.9961   -0.9169   -0.7411 C.ar    1  UNL1       -0.2220
     11 H           2.1794    1.8406    1.2091 H       1  UNL1        0.1628
     12 H           4.5675    1.2663    1.1203 H       1  UNL1        0.1451
     13 H           5.3249   -0.7110   -0.1612 H       1  UNL1        0.1469
     14 H           3.6645   -2.1102   -1.3499 H       1  UNL1        0.1446
     15 H           1.2757   -1.5381   -1.2585 H       1  UNL1        0.1637
     16 C          -0.8466   -0.5678    0.0084 C.ar    1  UNL1        0.0025
     17 C          -1.7986   -0.7183   -0.9962 C.ar    1  UNL1       -0.1700
     18 C          -2.6936   -1.7765   -0.9641 C.ar    1  UNL1       -0.1543
     19 C          -2.6495   -2.6939    0.0756 C.ar    1  UNL1       -0.1196
     20 C          -1.6991   -2.5551    1.0779 C.ar    1  UNL1       -0.1524
     21 C          -0.7959   -1.5048    1.0386 C.ar    1  UNL1       -0.1862
     22 H          -1.8329   -0.0027   -1.8086 H       1  UNL1        0.1522
     23 H          -3.4260   -1.8849   -1.7539 H       1  UNL1        0.1450
     24 H          -3.3502   -3.5186    0.1025 H       1  UNL1        0.1479
     25 H          -1.6581   -3.2691    1.8906 H       1  UNL1        0.1455
     26 H          -0.0488   -1.4039    1.8165 H       1  UNL1        0.1524
     27 H           0.4923    2.6155   -0.1965 H       1  UNL1        0.1676
     28 N          -2.5042    1.8811    0.8680 N.am    1  UNL1       -0.4271
     29 H          -3.4542    2.2100    0.8763 H       1  UNL1        0.2786
     30 H          -2.2695    1.0777    1.4223 H       1  UNL1        0.2893
@<TRIPOS>BOND
     1    22    17    1
     2    23    18    1
     3    14     9    1
     4    15    10    1
     5    17    18   ar
     6    17    16   ar
     7    18    19   ar
     8     9    10   ar
     9     9     8   ar
    10    10     5   ar
    11     3     2    2
    12    27     1    1
    13    13     8    1
    14     8     7   ar
    15     1     2    1
    16     1     4    2
    17     5     4    1
    18     5     6   ar
    19     2    28   am
    20     4    16    1
    21    16    21   ar
    22    19    24    1
    23    19    20   ar
    24     7     6   ar
    25     7    12    1
    26     6    11    1
    27    28    29    1
    28    28    30    1
    29    21    20   ar
    30    21    26    1
    31    20    25    1
