@<TRIPOS>MOLECULE
GS-132-0.out
 22 22 0 0 0
SMALL
MULLIKEN_CHARGES
****
Gaussian 16 # wB97XD def2tzvp, opt=(calcfc, maxcycles=70, maxstep=10), freq=norama
@<TRIPOS>ATOM
      1 C          -0.9376   -0.8109    0.1203 C.2     1  UNL1       -0.2643
      2 C          -2.3923   -0.5717    0.0752 C.2     1  UNL1        0.4448
      3 O          -2.9594    0.4789   -0.0972 O.2     1  UNL1       -0.4135
      4 C           0.0576    0.0696    0.0062 C.2     1  UNL1        0.0244
      5 C           1.4765   -0.3470    0.0216 C.ar    1  UNL1        0.2178
      6 C           1.8633   -1.4825   -0.6899 C.ar    1  UNL1       -0.2575
      7 C           3.1800   -1.9131   -0.6611 C.ar    1  UNL1       -0.1292
      8 C           4.1239   -1.2187    0.0804 C.ar    1  UNL1       -0.1401
      9 C           3.7467   -0.0856    0.7879 C.ar    1  UNL1       -0.1366
     10 C           2.4344    0.3540    0.7526 C.ar    1  UNL1       -0.2302
     11 H           1.1342   -2.0184   -1.2839 H       1  UNL1        0.1708
     12 H           3.4685   -2.7899   -1.2262 H       1  UNL1        0.1501
     13 H           5.1524   -1.5552    0.1024 H       1  UNL1        0.1504
     14 H           4.4781    0.4605    1.3695 H       1  UNL1        0.1493
     15 H           2.1500    1.2399    1.3051 H       1  UNL1        0.1577
     16 BR         -0.2250    1.9311   -0.1990 Br      1  UNL1       -0.0267
     17 H          -0.6563   -1.8446    0.2745 H       1  UNL1        0.1804
     18 O          -3.0350   -1.7296    0.2581 O.3     1  UNL1       -0.2776
     19 C          -4.4616   -1.6712    0.2426 C.3     1  UNL1       -0.1981
     20 H          -4.8253   -1.0235    1.0396 H       1  UNL1        0.1398
     21 H          -4.8179   -1.3000   -0.7177 H       1  UNL1        0.1399
     22 H          -4.7997   -2.6907    0.4017 H       1  UNL1        0.1483
@<TRIPOS>BOND
     1    11     6    1
     2    12     7    1
     3    21    19    1
     4     6     7   ar
     5     6     5   ar
     6     7     8   ar
     7    16     4    1
     8     3     2    2
     9     4     5    1
    10     4     1    2
    11     5    10   ar
    12     2     1    1
    13     2    18    1
    14     8    13    1
    15     8     9   ar
    16     1    17    1
    17    19    18    1
    18    19    22    1
    19    19    20    1
    20    10     9   ar
    21    10    15    1
    22     9    14    1
