@<TRIPOS>MOLECULE
GS-145-0.out
 18 18 0 0 0
SMALL
MULLIKEN_CHARGES
****
Gaussian 16 # wB97XD def2tzvp, opt=(calcfc, maxcycles=70, maxstep=10), freq=norama
@<TRIPOS>ATOM
      1 C          -1.2770   -0.1601    0.0027 C.2     1  UNL1       -0.0503
      2 C          -2.6534    0.3831    0.0537 C.2     1  UNL1        0.1292
      3 O          -3.6466   -0.2949    0.0129 O.2     1  UNL1       -0.3404
      4 C          -0.1590    0.5736    0.0238 C.2     1  UNL1       -0.0006
      5 C           1.2216    0.0484    0.0203 C.ar    1  UNL1        0.2165
      6 C           2.0098    0.1548   -1.1213 C.ar    1  UNL1       -0.2019
      7 C           3.3019   -0.3449   -1.1155 C.ar    1  UNL1       -0.1362
      8 C           3.8162   -0.9346    0.0307 C.ar    1  UNL1       -0.1365
      9 C           3.0342   -1.0289    1.1728 C.ar    1  UNL1       -0.1221
     10 C           1.7369   -0.5422    1.1698 C.ar    1  UNL1       -0.2241
     11 H           1.6096    0.6209   -2.0129 H       1  UNL1        0.1580
     12 H           3.9089   -0.2707   -2.0083 H       1  UNL1        0.1508
     13 H           4.8279   -1.3192    0.0340 H       1  UNL1        0.1517
     14 H           3.4332   -1.4843    2.0698 H       1  UNL1        0.1511
     15 H           1.1219   -0.6188    2.0574 H       1  UNL1        0.1620
     16 BR         -0.2348    2.4740    0.0695 Br      1  UNL1       -0.0131
     17 BR         -1.1710   -2.0437   -0.1209 Br      1  UNL1       -0.0276
     18 H          -2.7113    1.4774    0.1372 H       1  UNL1        0.1336
@<TRIPOS>BOND
     1    11     6    1
     2    12     7    1
     3     6     7   ar
     4     6     5   ar
     5     7     8   ar
     6    17     1    1
     7     1     4    2
     8     1     2    1
     9     3     2    2
    10     5     4    1
    11     5    10   ar
    12     4    16    1
    13     8    13    1
    14     8     9   ar
    15     2    18    1
    16    10     9   ar
    17    10    15    1
    18     9    14    1
