@<TRIPOS>MOLECULE
GS-183-0.out
 33 34 0 0 0
SMALL
MULLIKEN_CHARGES
****
Gaussian 16 # wB97XD def2tzvp, opt=(calcfc, maxcycles=70, maxstep=10), freq=norama
@<TRIPOS>ATOM
      1 C          -0.6057    0.8744   -0.3127 C.2     1  UNL1       -0.0707
      2 C           0.8413    1.0180    0.0826 C.2     1  UNL1        0.3550
      3 O           1.2028    1.9521    0.7753 O.2     1  UNL1       -0.4558
      4 C          -1.4109    0.0069    0.2914 C.2     1  UNL1        0.0446
      5 C          -2.8641   -0.1480    0.0600 C.ar    1  UNL1        0.1584
      6 C          -3.3883   -1.3622   -0.3776 C.ar    1  UNL1       -0.2100
      7 C          -4.7480   -1.4939   -0.6044 C.ar    1  UNL1       -0.1517
      8 C          -5.5992   -0.4183   -0.3870 C.ar    1  UNL1       -0.1326
      9 C          -5.0844    0.7898    0.0582 C.ar    1  UNL1       -0.1237
     10 C          -3.7223    0.9250    0.2819 C.ar    1  UNL1       -0.2552
     11 H          -2.7273   -2.2037   -0.5443 H       1  UNL1        0.1525
     12 H          -5.1451   -2.4388   -0.9526 H       1  UNL1        0.1471
     13 H          -6.6622   -0.5240   -0.5619 H       1  UNL1        0.1490
     14 H          -5.7433    1.6301    0.2356 H       1  UNL1        0.1478
     15 H          -3.3199    1.8666    0.6337 H       1  UNL1        0.1620
     16 CL         -0.7703   -1.0731    1.5219 Cl      1  UNL1       -0.1049
     17 C          -1.0385    1.8294   -1.3870 C.3     1  UNL1       -0.3506
     18 H          -0.9950    2.8554   -1.0158 H       1  UNL1        0.1537
     19 H          -0.3599    1.7612   -2.2400 H       1  UNL1        0.1482
     20 H          -2.0502    1.6253   -1.7286 H       1  UNL1        0.1526
     21 N           1.6553    0.0738   -0.4481 N.am    1  UNL1       -0.2656
     22 C           3.0439   -0.0935   -0.2988 C.ar    1  UNL1        0.3093
     23 C           3.6035   -1.2511   -0.8400 C.ar    1  UNL1       -0.2999
     24 C           4.9632   -1.4828   -0.7404 C.ar    1  UNL1       -0.0984
     25 C           5.7855   -0.5658   -0.0994 C.ar    1  UNL1       -0.1839
     26 C           5.2272    0.5834    0.4367 C.ar    1  UNL1       -0.1108
     27 C           3.8644    0.8308    0.3433 C.ar    1  UNL1       -0.2904
     28 H           1.1896   -0.6442   -0.9798 H       1  UNL1        0.2773
     29 H           2.9675   -1.9724   -1.3396 H       1  UNL1        0.1465
     30 H           5.3806   -2.3865   -1.1657 H       1  UNL1        0.1473
     31 H           6.8494   -0.7470   -0.0200 H       1  UNL1        0.1444
     32 H           5.8571    1.3076    0.9380 H       1  UNL1        0.1456
     33 H           3.4397    1.7279    0.7630 H       1  UNL1        0.1630
@<TRIPOS>BOND
     1    19    17    1
     2    20    17    1
     3    17    18    1
     4    17     1    1
     5    29    23    1
     6    30    24    1
     7    28    21    1
     8    12     7    1
     9    23    24   ar
    10    23    22   ar
    11    24    25   ar
    12     7     8   ar
    13     7     6   ar
    14    13     8    1
    15    11     6    1
    16    21    22    1
    17    21     2   am
    18     8     9   ar
    19     6     5   ar
    20     1     2    1
    21     1     4    2
    22    22    27   ar
    23    25    31    1
    24    25    26   ar
    25     9    14    1
    26     9    10   ar
    27     5    10   ar
    28     5     4    1
    29     2     3    2
    30    10    15    1
    31     4    16    1
    32    27    26   ar
    33    27    33    1
    34    26    32    1
