@<TRIPOS>MOLECULE
GS-191-0.out
 30 31 0 0 0
SMALL
MULLIKEN_CHARGES
****
Gaussian 16 # wB97XD def2tzvp, opt=(maxcycles=50, maxstep=10), freq=noraman, geom=
@<TRIPOS>ATOM
      1 C          -0.4270   -0.4388   -0.2384 C.2     1  UNL1       -0.1105
      2 C           1.0269   -0.4792   -0.6426 C.2     1  UNL1        0.3629
      3 O           1.3600   -0.9879   -1.6941 O.2     1  UNL1       -0.4366
      4 C          -1.2329    0.6016   -0.4055 C.2     1  UNL1        0.0517
      5 C          -2.6793    0.6659   -0.1087 C.ar    1  UNL1        0.1704
      6 C          -3.1412    1.4455    0.9474 C.ar    1  UNL1       -0.2062
      7 C          -4.4975    1.5023    1.2236 C.ar    1  UNL1       -0.1429
      8 C          -5.3977    0.7912    0.4419 C.ar    1  UNL1       -0.1326
      9 C          -4.9393    0.0211   -0.6169 C.ar    1  UNL1       -0.1260
     10 C          -3.5825   -0.0435   -0.8933 C.ar    1  UNL1       -0.2342
     11 H          -2.4380    2.0026    1.5540 H       1  UNL1        0.1548
     12 H          -4.8520    2.1035    2.0508 H       1  UNL1        0.1495
     13 H          -6.4573    0.8391    0.6577 H       1  UNL1        0.1508
     14 H          -5.6386   -0.5314   -1.2309 H       1  UNL1        0.1499
     15 H          -3.2210   -0.6447   -1.7178 H       1  UNL1        0.1627
     16 CL         -0.5537    2.0720   -1.0608 Cl      1  UNL1       -0.0681
     17 BR         -1.0401   -2.0693    0.4904 Br      1  UNL1       -0.0054
     18 N           1.8519    0.0659    0.2781 N.am    1  UNL1       -0.2590
     19 C           3.2525    0.2058    0.2434 C.ar    1  UNL1        0.3073
     20 C           3.8452    0.8751    1.3138 C.ar    1  UNL1       -0.2966
     21 C           5.2163    1.0495    1.3536 C.ar    1  UNL1       -0.0983
     22 C           6.0149    0.5604    0.3285 C.ar    1  UNL1       -0.1806
     23 C           5.4225   -0.1040   -0.7331 C.ar    1  UNL1       -0.1124
     24 C           4.0476   -0.2877   -0.7874 C.ar    1  UNL1       -0.2865
     25 H           1.4001    0.4520    1.0920 H       1  UNL1        0.2817
     26 H           3.2275    1.2600    2.1166 H       1  UNL1        0.1482
     27 H           5.6614    1.5711    2.1911 H       1  UNL1        0.1484
     28 H           7.0879    0.6972    0.3589 H       1  UNL1        0.1455
     29 H           6.0340   -0.4904   -1.5387 H       1  UNL1        0.1468
     30 H           3.5963   -0.8059   -1.6175 H       1  UNL1        0.1657
@<TRIPOS>BOND
     1    15    10    1
     2     3     2    2
     3    30    24    1
     4    29    23    1
     5    14     9    1
     6    16     4    1
     7    10     9   ar
     8    10     5   ar
     9    24    23   ar
    10    24    19   ar
    11    23    22   ar
    12     2     1    1
    13     2    18   am
    14     9     8   ar
    15     4     1    2
    16     4     5    1
    17     1    17    1
    18     5     6   ar
    19    19    18    1
    20    19    20   ar
    21    18    25    1
    22    22    28    1
    23    22    21   ar
    24     8    13    1
    25     8     7   ar
    26     6     7   ar
    27     6    11    1
    28     7    12    1
    29    20    21   ar
    30    20    26    1
    31    21    27    1
