@<TRIPOS>MOLECULE
GS-17-1.out
 31 32 0 0 0
SMALL
MULLIKEN_CHARGES
****
Gaussian 16 # wB97XD def2tzvp, opt=(maxcycles=70, maxstep=1), freq=noraman, scrf=(
@<TRIPOS>ATOM
      1 C          -0.1813    1.8822   -0.0468 C.2     1  UNL1       -0.0425
      2 C          -1.5139    2.4478    0.2218 C.2     1  UNL1        0.1236
      3 O          -1.7759    3.6284    0.1189 O.2     1  UNL1       -0.3967
      4 C          -0.0029    0.5427   -0.0091 C.2     1  UNL1        0.2080
      5 C           1.3428   -0.0822   -0.0560 C.ar    1  UNL1        0.0972
      6 C           1.5960   -1.1306   -0.9403 C.ar    1  UNL1       -0.2059
      7 C           2.8454   -1.7265   -0.9882 C.ar    1  UNL1       -0.1565
      8 C           3.8528   -1.3013   -0.1329 C.ar    1  UNL1       -0.1295
      9 C           3.6047   -0.2743    0.7662 C.ar    1  UNL1       -0.1256
     10 C           2.3600    0.3346    0.8006 C.ar    1  UNL1       -0.2661
     11 H           0.8086   -1.4752   -1.5995 H       1  UNL1        0.1598
     12 H           3.0315   -2.5292   -1.6903 H       1  UNL1        0.1447
     13 H           4.8265   -1.7735   -0.1632 H       1  UNL1        0.1476
     14 H           4.3816    0.0537    1.4449 H       1  UNL1        0.1454
     15 H           2.1690    1.1313    1.5082 H       1  UNL1        0.1593
     16 C          -1.1336   -0.4199    0.0521 C.ar    1  UNL1        0.1159
     17 C          -2.1585   -0.3889   -0.8910 C.ar    1  UNL1       -0.2932
     18 C          -3.1954   -1.3093   -0.8383 C.ar    1  UNL1       -0.1121
     19 C          -3.2201   -2.2716    0.1588 C.ar    1  UNL1       -0.1318
     20 C          -2.1962   -2.3188    1.0969 C.ar    1  UNL1       -0.1540
     21 C          -1.1548   -1.4093    1.0359 C.ar    1  UNL1       -0.2055
     22 H          -2.1330    0.3527   -1.6798 H       1  UNL1        0.1612
     23 H          -3.9820   -1.2744   -1.5811 H       1  UNL1        0.1467
     24 H          -4.0295   -2.9890    0.2022 H       1  UNL1        0.1483
     25 H          -2.2084   -3.0704    1.8760 H       1  UNL1        0.1453
     26 H          -0.3531   -1.4562    1.7628 H       1  UNL1        0.1569
     27 C           0.9006    2.8880   -0.3096 C.3     1  UNL1       -0.4105
     28 H           0.5242    3.6490   -0.9943 H       1  UNL1        0.1409
     29 H           1.1947    3.4057    0.6064 H       1  UNL1        0.1472
     30 H           1.7861    2.4294   -0.7426 H       1  UNL1        0.1533
     31 H          -2.2824    1.7438    0.5766 H       1  UNL1        0.1288
@<TRIPOS>BOND
     1    12     7    1
     2    22    17    1
     3    11     6    1
     4    23    18    1
     5    28    27    1
     6     7     6   ar
     7     7     8   ar
     8     6     5   ar
     9    17    18   ar
    10    17    16   ar
    11    18    19   ar
    12    30    27    1
    13    27     1    1
    14    27    29    1
    15    13     8    1
    16     8     9   ar
    17     5     4    1
    18     5    10   ar
    19     1     4    2
    20     1     2    1
    21     4    16    1
    22    16    21   ar
    23     3     2    2
    24    19    24    1
    25    19    20   ar
    26     2    31    1
    27     9    10   ar
    28     9    14    1
    29    10    15    1
    30    21    20   ar
    31    21    26    1
    32    20    25    1
