@<TRIPOS>MOLECULE
GS-110-0.out
 29 29 0 0 0
SMALL
MULLIKEN_CHARGES
****
Gaussian 16 # wB97XD def2tzvp, opt=(calcfc, maxcycles=70, maxstep=10), freq=norama
@<TRIPOS>ATOM
      1 C          -0.6659    0.0835    0.2806 C.2     1  UNL1       -0.0819
      2 C          -2.1265   -0.0633    0.6186 C.2     1  UNL1        0.2328
      3 O          -2.5257    0.3371    1.7062 O.2     1  UNL1       -0.4769
      4 C           0.2543   -0.8530    0.4714 C.2     1  UNL1        0.0013
      5 C           1.7037   -0.6325    0.2281 C.ar    1  UNL1        0.1710
      6 C           2.3187   -1.2058   -0.8809 C.ar    1  UNL1       -0.2187
      7 C           3.6751   -1.0210   -1.1035 C.ar    1  UNL1       -0.1537
      8 C           4.4313   -0.2726   -0.2126 C.ar    1  UNL1       -0.1339
      9 C           3.8252    0.2916    0.9010 C.ar    1  UNL1       -0.1366
     10 C           2.4677    0.1130    1.1204 C.ar    1  UNL1       -0.2343
     11 H           1.7311   -1.7915   -1.5779 H       1  UNL1        0.1543
     12 H           4.1417   -1.4634   -1.9744 H       1  UNL1        0.1448
     13 H           5.4905   -0.1306   -0.3850 H       1  UNL1        0.1467
     14 H           4.4104    0.8737    1.6016 H       1  UNL1        0.1451
     15 H           1.9937    0.5563    1.9876 H       1  UNL1        0.1512
     16 C          -0.1215   -2.2297    0.9446 C.3     1  UNL1       -0.3362
     17 H           0.2047   -2.9711    0.2115 H       1  UNL1        0.1487
     18 H           0.3961   -2.4517    1.8802 H       1  UNL1        0.1515
     19 H          -1.1923   -2.3472    1.1020 H       1  UNL1        0.1425
     20 BR         -0.2593    1.8241   -0.3695 Br      1  UNL1       -0.0581
     21 N          -2.9203   -0.6274   -0.3084 N.am    1  UNL1       -0.1034
     22 C          -4.3329   -0.8102   -0.0374 C.3     1  UNL1       -0.2755
     23 C          -2.4751   -1.0974   -1.6055 C.3     1  UNL1       -0.2911
     24 H          -4.5590   -0.4527    0.9616 H       1  UNL1        0.1521
     25 H          -4.9270   -0.2551   -0.7664 H       1  UNL1        0.1450
     26 H          -4.5895   -1.8689   -0.1126 H       1  UNL1        0.1420
     27 H          -1.4273   -0.8641   -1.7646 H       1  UNL1        0.1727
     28 H          -2.6103   -2.1789   -1.6790 H       1  UNL1        0.1494
     29 H          -3.0653   -0.6195   -2.3896 H       1  UNL1        0.1494
@<TRIPOS>BOND
     1    29    23    1
     2    12     7    1
     3    27    23    1
     4    28    23    1
     5    23    21    1
     6    11     6    1
     7     7     6   ar
     8     7     8   ar
     9     6     5   ar
    10    25    22    1
    11    13     8    1
    12    20     1    1
    13    21    22    1
    14    21     2   am
    15     8     9   ar
    16    26    22    1
    17    22    24    1
    18    17    16    1
    19     5     4    1
    20     5    10   ar
    21     1     4    2
    22     1     2    1
    23     4    16    1
    24     2     3    2
    25     9    10   ar
    26     9    14    1
    27    16    19    1
    28    16    18    1
    29    10    15    1
