@<TRIPOS>MOLECULE
GS-154-0.out
 21 21 0 0 0
SMALL
MULLIKEN_CHARGES
****
Gaussian 16 # wB97XD def2tzvp, opt=(maxcycles=50, maxstep=10), freq=noraman, geom=
@<TRIPOS>ATOM
      1 C          -1.0283    0.8429    0.0028 C.2     1  UNL1        0.0699
      2 C          -2.5342    0.6894   -0.0899 C.2     1  UNL1        0.1851
      3 O          -3.0655    0.6839   -1.1703 O.2     1  UNL1       -0.3390
      4 C          -0.1383   -0.1370   -0.0430 C.2     1  UNL1       -0.0622
      5 C           1.3309    0.0002   -0.0025 C.ar    1  UNL1        0.1914
      6 C           2.0540   -0.4705    1.0901 C.ar    1  UNL1       -0.2097
      7 C           3.4316   -0.3295    1.1227 C.ar    1  UNL1       -0.1393
      8 C           4.0958    0.2718    0.0621 C.ar    1  UNL1       -0.1371
      9 C           3.3786    0.7341   -1.0314 C.ar    1  UNL1       -0.1235
     10 C           1.9993    0.6000   -1.0655 C.ar    1  UNL1       -0.2327
     11 H           1.5361   -0.9437    1.9151 H       1  UNL1        0.1566
     12 H           3.9878   -0.6906    1.9780 H       1  UNL1        0.1493
     13 H           5.1727    0.3778    0.0881 H       1  UNL1        0.1505
     14 H           3.8928    1.1999   -1.8622 H       1  UNL1        0.1497
     15 H           1.4369    0.9594   -1.9179 H       1  UNL1        0.1613
     16 BR         -0.7924   -1.9224   -0.1813 Br      1  UNL1       -0.0404
     17 CL         -0.5558    2.4993    0.1963 Cl      1  UNL1       -0.0523
     18 C          -3.2636    0.5883    1.2121 C.3     1  UNL1       -0.3509
     19 H          -2.9250   -0.3053    1.7416 H       1  UNL1        0.1625
     20 H          -3.0153    1.4462    1.8403 H       1  UNL1        0.1633
     21 H          -4.3366    0.5413    1.0442 H       1  UNL1        0.1476
@<TRIPOS>BOND
     1    15    10    1
     2    14     9    1
     3     3     2    2
     4    10     9   ar
     5    10     5   ar
     6     9     8   ar
     7    16     4    1
     8     2     1    1
     9     2    18    1
    10     4     5    1
    11     4     1    2
    12     5     6   ar
    13     1    17    1
    14     8    13    1
    15     8     7   ar
    16    21    18    1
    17     6     7   ar
    18     6    11    1
    19     7    12    1
    20    18    19    1
    21    18    20    1
