@<TRIPOS>MOLECULE
GS-130-0.out
 21 21 0 0 0
SMALL
MULLIKEN_CHARGES
****
Gaussian 16 # wB97XD def2tzvp, opt=(maxcycles=50, maxstep=10), freq=noraman, geom=
@<TRIPOS>ATOM
      1 C          -1.0342    1.1997    0.2000 C.2     1  UNL1       -0.2585
      2 C          -2.5016    1.4142    0.2124 C.2     1  UNL1        0.2951
      3 O          -2.8864    2.5427    0.4591 O.2     1  UNL1       -0.4006
      4 C          -0.2510    0.1301    0.0374 C.2     1  UNL1        0.0586
      5 C           1.2251    0.2434    0.0269 C.ar    1  UNL1        0.2272
      6 C           2.0305   -0.6443    0.7386 C.ar    1  UNL1       -0.2311
      7 C           3.4057   -0.4855    0.7503 C.ar    1  UNL1       -0.1336
      8 C           3.9963    0.5488    0.0373 C.ar    1  UNL1       -0.1442
      9 C           3.2031    1.4269   -0.6855 C.ar    1  UNL1       -0.1240
     10 C           1.8254    1.2782   -0.6899 C.ar    1  UNL1       -0.2671
     11 H           1.5794   -1.4553    1.2954 H       1  UNL1        0.1587
     12 H           4.0186   -1.1738    1.3178 H       1  UNL1        0.1494
     13 H           5.0724    0.6655    0.0407 H       1  UNL1        0.1504
     14 H           3.6563    2.2282   -1.2546 H       1  UNL1        0.1502
     15 H           1.2117    1.9569   -1.2681 H       1  UNL1        0.1720
     16 BR         -0.8915   -1.6408   -0.2031 Br      1  UNL1       -0.0389
     17 H          -0.5053    2.1308    0.3754 H       1  UNL1        0.1654
     18 C          -3.4894    0.3211   -0.0708 C.3     1  UNL1       -0.3790
     19 H          -4.4889    0.7495   -0.0786 H       1  UNL1        0.1390
     20 H          -3.2797   -0.1556   -1.0287 H       1  UNL1        0.1551
     21 H          -3.4286   -0.4538    0.6946 H       1  UNL1        0.1562
@<TRIPOS>BOND
     1    15    10    1
     2    14     9    1
     3    20    18    1
     4    10     9   ar
     5    10     5   ar
     6     9     8   ar
     7    16     4    1
     8    19    18    1
     9    18     2    1
    10    18    21    1
    11     5     4    1
    12     5     6   ar
    13     8    13    1
    14     8     7   ar
    15     4     1    2
    16     1     2    1
    17     1    17    1
    18     2     3    2
    19     6     7   ar
    20     6    11    1
    21     7    12    1
