@<TRIPOS>MOLECULE
GS-189-0.out
 23 23 0 0 0
SMALL
MULLIKEN_CHARGES
****
Gaussian 16 # wB97XD def2tzvp, opt=(maxcycles=50, maxstep=10), freq=noraman, geom=
@<TRIPOS>ATOM
      1 C           0.8181   -0.1551   -0.1142 C.2     1  UNL1       -0.0837
      2 C           2.2839    0.1236   -0.3354 C.2     1  UNL1        0.3016
      3 O           2.7947   -0.0606   -1.4286 O.2     1  UNL1       -0.4596
      4 C          -0.1474    0.7527   -0.1664 C.2     1  UNL1        0.0425
      5 C          -1.6017    0.5171   -0.0471 C.ar    1  UNL1        0.1860
      6 C          -2.2902    0.9445    1.0841 C.ar    1  UNL1       -0.2066
      7 C          -3.6534    0.7204    1.1903 C.ar    1  UNL1       -0.1407
      8 C          -4.3358    0.0791    0.1655 C.ar    1  UNL1       -0.1355
      9 C          -3.6522   -0.3395   -0.9667 C.ar    1  UNL1       -0.1244
     10 C          -2.2874   -0.1224   -1.0746 C.ar    1  UNL1       -0.2334
     11 H          -1.7571    1.4476    1.8812 H       1  UNL1        0.1541
     12 H          -4.1837    1.0474    2.0753 H       1  UNL1        0.1493
     13 H          -5.4012   -0.0927    0.2495 H       1  UNL1        0.1505
     14 H          -4.1815   -0.8366   -1.7693 H       1  UNL1        0.1497
     15 H          -1.7501   -0.4492   -1.9559 H       1  UNL1        0.1618
     16 CL          0.3032    2.4219   -0.4241 Cl      1  UNL1       -0.0731
     17 BR          0.4448   -1.9824    0.1886 Br      1  UNL1       -0.0130
     18 N           2.9464    0.5455    0.7449 N.am    1  UNL1       -0.2951
     19 C           4.3597    0.8569    0.7048 C.3     1  UNL1       -0.2551
     20 H           2.4356    0.6905    1.5984 H       1  UNL1        0.2873
     21 H           4.6888    1.1017    1.7109 H       1  UNL1        0.1523
     22 H           4.9277    0.0002    0.3418 H       1  UNL1        0.1425
     23 H           4.5535    1.7067    0.0485 H       1  UNL1        0.1427
@<TRIPOS>BOND
     1    15    10    1
     2    14     9    1
     3     3     2    2
     4    10     9   ar
     5    10     5   ar
     6     9     8   ar
     7    16     4    1
     8     2     1    1
     9     2    18   am
    10     4     1    2
    11     4     5    1
    12     1    17    1
    13     5     6   ar
    14    23    19    1
    15     8    13    1
    16     8     7   ar
    17    22    19    1
    18    19    18    1
    19    19    21    1
    20    18    20    1
    21     6     7   ar
    22     6    11    1
    23     7    12    1
