@<TRIPOS>MOLECULE
GS-185-0.out
 18 18 0 0 0
SMALL
MULLIKEN_CHARGES
****
Gaussian 16 # wB97XD def2tzvp, opt=(calcfc, maxcycles=70, maxstep=10), freq=norama
@<TRIPOS>ATOM
      1 C          -1.2951    0.2969    0.0320 C.2     1  UNL1       -0.0658
      2 C          -2.6244    0.9382    0.1159 C.2     1  UNL1        0.1290
      3 O          -3.6671    0.3410    0.0367 O.2     1  UNL1       -0.3457
      4 C          -0.1310    0.9599    0.0814 C.2     1  UNL1        0.0695
      5 C           1.2201    0.3637    0.0560 C.ar    1  UNL1        0.2151
      6 C           1.6435   -0.4417    1.1088 C.ar    1  UNL1       -0.2392
      7 C           2.9174   -0.9856    1.0928 C.ar    1  UNL1       -0.1149
      8 C           3.7673   -0.7374    0.0245 C.ar    1  UNL1       -0.1416
      9 C           3.3456    0.0662   -1.0256 C.ar    1  UNL1       -0.1304
     10 C           2.0788    0.6260   -1.0075 C.ar    1  UNL1       -0.2159
     11 H           0.9777   -0.6368    1.9395 H       1  UNL1        0.1680
     12 H           3.2454   -1.6055    1.9170 H       1  UNL1        0.1516
     13 H           4.7603   -1.1677    0.0116 H       1  UNL1        0.1520
     14 H           4.0061    0.2618   -1.8602 H       1  UNL1        0.1514
     15 H           1.7527    1.2601   -1.8222 H       1  UNL1        0.1582
     16 CL         -0.1177    2.6966    0.1813 Cl      1  UNL1       -0.0435
     17 BR         -1.3239   -1.5779   -0.1913 Br      1  UNL1       -0.0255
     18 H          -2.6002    2.0268    0.2634 H       1  UNL1        0.1278
@<TRIPOS>BOND
     1    14     9    1
     2    15    10    1
     3     9    10   ar
     4     9     8   ar
     5    10     5   ar
     6    17     1    1
     7    13     8    1
     8     8     7   ar
     9     1     4    2
    10     1     2    1
    11     3     2    2
    12     5     4    1
    13     5     6   ar
    14     4    16    1
    15     2    18    1
    16     7     6   ar
    17     7    12    1
    18     6    11    1
