@<TRIPOS>MOLECULE
GS-101-0.out
 29 29 0 0 0
SMALL
MULLIKEN_CHARGES
****
Gaussian 16 # wB97XD def2tzvp, opt=(maxcycles=50, maxstep=10), freq=noraman, geom=
@<TRIPOS>ATOM
      1 C           0.9116    0.5440   -0.1850 C.2     1  UNL1       -0.0122
      2 C           2.3881    0.4424    0.0793 C.2     1  UNL1        0.2755
      3 O           2.9761    1.2774    0.7599 O.2     1  UNL1       -0.4917
      4 C           0.0488   -0.3216    0.3527 C.2     1  UNL1        0.0078
      5 C          -1.4217   -0.1926    0.1462 C.ar    1  UNL1        0.1288
      6 C          -2.1196   -1.1671   -0.5639 C.ar    1  UNL1       -0.2122
      7 C          -3.4910   -1.0660   -0.7436 C.ar    1  UNL1       -0.1601
      8 C          -4.1876    0.0063   -0.2039 C.ar    1  UNL1       -0.1410
      9 C          -3.5036    0.9766    0.5141 C.ar    1  UNL1       -0.1322
     10 C          -2.1308    0.8764    0.6877 C.ar    1  UNL1       -0.2496
     11 H          -1.5827   -2.0070   -0.9892 H       1  UNL1        0.1501
     12 H          -4.0167   -1.8268   -1.3069 H       1  UNL1        0.1425
     13 H          -5.2586    0.0844   -0.3414 H       1  UNL1        0.1447
     14 H          -4.0394    1.8150    0.9414 H       1  UNL1        0.1430
     15 H          -1.5988    1.6361    1.2477 H       1  UNL1        0.1487
     16 C           0.4459   -1.4739    1.2368 C.3     1  UNL1       -0.3536
     17 H           0.1465   -2.4235    0.7859 H       1  UNL1        0.1412
     18 H           1.5159   -1.5117    1.4310 H       1  UNL1        0.1342
     19 H          -0.0768   -1.4003    2.1934 H       1  UNL1        0.1397
     20 C           0.5523    1.7186   -1.0513 C.3     1  UNL1       -0.3646
     21 H           1.1447    1.7075   -1.9696 H       1  UNL1        0.1387
     22 H          -0.5014    1.7177   -1.3205 H       1  UNL1        0.1419
     23 H           0.7765    2.6551   -0.5355 H       1  UNL1        0.1399
     24 N           3.0226   -0.5796   -0.5156 N.am    1  UNL1       -0.3062
     25 C           4.4430   -0.8055   -0.3637 C.3     1  UNL1       -0.2531
     26 H           2.4767   -1.2293   -1.0529 H       1  UNL1        0.2804
     27 H           5.0113    0.0599   -0.7069 H       1  UNL1        0.1358
     28 H           4.7002   -0.9941    0.6801 H       1  UNL1        0.1363
     29 H           4.7233   -1.6710   -0.9587 H       1  UNL1        0.1473
@<TRIPOS>BOND
     1    21    20    1
     2    22    20    1
     3    12     7    1
     4    26    24    1
     5    20    23    1
     6    20     1    1
     7    11     6    1
     8    29    25    1
     9     7     6   ar
    10     7     8   ar
    11    27    25    1
    12     6     5   ar
    13    24    25    1
    14    24     2   am
    15    25    28    1
    16    13     8    1
    17     8     9   ar
    18     1     2    1
    19     1     4    2
    20     2     3    2
    21     5     4    1
    22     5    10   ar
    23     4    16    1
    24     9    10   ar
    25     9    14    1
    26    10    15    1
    27    17    16    1
    28    16    18    1
    29    16    19    1
