@<TRIPOS>MOLECULE
GS-157-0.out
 23 23 0 0 0
SMALL
MULLIKEN_CHARGES
****
Gaussian 16 # wB97XD def2tzvp, opt=(calcfc, maxcycles=70, maxstep=10), freq=norama
@<TRIPOS>ATOM
      1 C          -0.7644    0.8334   -0.0567 C.2     1  UNL1        0.0304
      2 C          -2.2534    0.6761   -0.2530 C.2     1  UNL1        0.3044
      3 O          -2.7586    0.8706   -1.3466 O.2     1  UNL1       -0.4570
      4 C           0.1309   -0.1444   -0.0686 C.2     1  UNL1       -0.0664
      5 C           1.5965    0.0077    0.0340 C.ar    1  UNL1        0.1758
      6 C           2.2613   -0.3569    1.2010 C.ar    1  UNL1       -0.2019
      7 C           3.6357   -0.2076    1.2908 C.ar    1  UNL1       -0.1432
      8 C           4.3535    0.2971    0.2152 C.ar    1  UNL1       -0.1340
      9 C           3.6934    0.6548   -0.9515 C.ar    1  UNL1       -0.1263
     10 C           2.3177    0.5115   -1.0440 C.ar    1  UNL1       -0.2249
     11 H           1.7004   -0.7540    2.0380 H       1  UNL1        0.1551
     12 H           4.1474   -0.4864    2.2029 H       1  UNL1        0.1489
     13 H           5.4276    0.4104    0.2864 H       1  UNL1        0.1504
     14 H           4.2497    1.0467   -1.7931 H       1  UNL1        0.1495
     15 H           1.7989    0.7909   -1.9522 H       1  UNL1        0.1582
     16 BR         -0.4826   -1.9368   -0.2718 Br      1  UNL1       -0.0373
     17 CL         -0.2816    2.4884    0.1284 Cl      1  UNL1       -0.0579
     18 N          -2.9352    0.3510    0.8481 N.am    1  UNL1       -0.2967
     19 C          -4.3695    0.1541    0.8306 C.3     1  UNL1       -0.2541
     20 H          -2.4274    0.1887    1.7003 H       1  UNL1        0.2882
     21 H          -4.7047   -0.0392    1.8458 H       1  UNL1        0.1527
     22 H          -4.8716    1.0443    0.4518 H       1  UNL1        0.1430
     23 H          -4.6377   -0.6933    0.1979 H       1  UNL1        0.1431
@<TRIPOS>BOND
     1    15    10    1
     2    14     9    1
     3     3     2    2
     4    10     9   ar
     5    10     5   ar
     6     9     8   ar
     7    16     4    1
     8     2     1    1
     9     2    18   am
    10     4     1    2
    11     4     5    1
    12     1    17    1
    13     5     6   ar
    14    23    19    1
    15     8    13    1
    16     8     7   ar
    17    22    19    1
    18    19    18    1
    19    19    21    1
    20    18    20    1
    21     6     7   ar
    22     6    11    1
    23     7    12    1
