@<TRIPOS>MOLECULE
GS-124-0.out
 32 33 0 0 0
SMALL
MULLIKEN_CHARGES
****
Gaussian 16 # wB97XD def2tzvp, opt=(maxcycles=50, maxstep=10), freq=noraman, geom=
@<TRIPOS>ATOM
      1 C           0.7664    0.2273   -0.1155 C.2     1  UNL1        0.0553
      2 C           2.2533    0.0908   -0.2716 C.2     1  UNL1        0.3331
      3 O           2.8147    0.0261   -1.3351 O.2     1  UNL1       -0.3920
      4 C          -0.0327   -0.8360   -0.0953 C.2     1  UNL1        0.0270
      5 C          -1.5099   -0.8092   -0.0755 C.ar    1  UNL1        0.1295
      6 C          -2.1944   -0.1250   -1.0768 C.ar    1  UNL1       -0.2178
      7 C          -3.5787   -0.0655   -1.0611 C.ar    1  UNL1       -0.1453
      8 C          -4.2905   -0.6878   -0.0460 C.ar    1  UNL1       -0.1264
      9 C          -3.6129   -1.3777    0.9501 C.ar    1  UNL1       -0.1485
     10 C          -2.2297   -1.4449    0.9328 C.ar    1  UNL1       -0.2183
     11 H          -1.6374    0.3637   -1.8659 H       1  UNL1        0.1628
     12 H          -4.1014    0.4671   -1.8451 H       1  UNL1        0.1468
     13 H          -5.3718   -0.6394   -0.0327 H       1  UNL1        0.1488
     14 H          -4.1636   -1.8655    1.7441 H       1  UNL1        0.1469
     15 H          -1.7045   -1.9848    1.7109 H       1  UNL1        0.1548
     16 BR          0.7325   -2.5864   -0.1313 Br      1  UNL1       -0.0622
     17 C           0.2822    1.6271    0.0094 C.ar    1  UNL1        0.1361
     18 C          -0.5467    2.0001    1.0650 C.ar    1  UNL1       -0.2228
     19 C          -0.9878    3.3080    1.1796 C.ar    1  UNL1       -0.1523
     20 C          -0.6028    4.2589    0.2447 C.ar    1  UNL1       -0.1239
     21 C           0.2330    3.8968   -0.8016 C.ar    1  UNL1       -0.1566
     22 C           0.6787    2.5891   -0.9168 C.ar    1  UNL1       -0.2093
     23 H          -0.8444    1.2617    1.7981 H       1  UNL1        0.1622
     24 H          -1.6314    3.5859    2.0045 H       1  UNL1        0.1453
     25 H          -0.9493    5.2805    0.3346 H       1  UNL1        0.1479
     26 H           0.5395    4.6336   -1.5328 H       1  UNL1        0.1460
     27 H           1.3274    2.3104   -1.7380 H       1  UNL1        0.1539
     28 O           2.8647    0.1068    0.9029 O.3     1  UNL1       -0.2563
     29 C           4.2952    0.0217    0.8799 C.3     1  UNL1       -0.2070
     30 H           4.6066    0.0537    1.9192 H       1  UNL1        0.1526
     31 H           4.6084   -0.9129    0.4169 H       1  UNL1        0.1450
     32 H           4.7134    0.8633    0.3299 H       1  UNL1        0.1449
@<TRIPOS>BOND
     1    11     6    1
     2    12     7    1
     3    27    22    1
     4    26    21    1
     5     3     2    2
     6     6     7   ar
     7     6     5   ar
     8     7     8   ar
     9    22    21   ar
    10    22    17   ar
    11    21    20   ar
    12     2     1    1
    13     2    28    1
    14    16     4    1
    15     1     4    2
    16     1    17    1
    17     4     5    1
    18     5    10   ar
    19     8    13    1
    20     8     9   ar
    21    17    18   ar
    22    20    25    1
    23    20    19   ar
    24    32    29    1
    25    31    29    1
    26    29    28    1
    27    29    30    1
    28    10     9   ar
    29    10    15    1
    30     9    14    1
    31    18    19   ar
    32    18    23    1
    33    19    24    1
