@<TRIPOS>MOLECULE
GS-142-0.out
 29 29 0 0 0
SMALL
MULLIKEN_CHARGES
****
Gaussian 16 # wB97XD def2tzvp, opt=(calcfc, maxcycles=70, maxstep=10), freq=norama
@<TRIPOS>ATOM
      1 C           0.6158   -1.0125   -0.1447 C.2     1  UNL1       -0.0968
      2 C           2.0725   -0.7967   -0.4665 C.2     1  UNL1        0.2717
      3 O           2.4432   -0.9628   -1.6244 O.2     1  UNL1       -0.4878
      4 C          -0.2677   -0.0225   -0.1611 C.2     1  UNL1       -0.0091
      5 C          -1.7311   -0.1507    0.0049 C.ar    1  UNL1        0.1805
      6 C          -2.4773   -0.8536   -0.9369 C.ar    1  UNL1       -0.2487
      7 C          -3.8483   -0.9949   -0.7807 C.ar    1  UNL1       -0.1237
      8 C          -4.4848   -0.4336    0.3160 C.ar    1  UNL1       -0.1331
      9 C          -3.7461    0.2724    1.2566 C.ar    1  UNL1       -0.1523
     10 C          -2.3777    0.4174    1.1004 C.ar    1  UNL1       -0.2065
     11 H          -1.9787   -1.2901   -1.7932 H       1  UNL1        0.1564
     12 H          -4.4188   -1.5431   -1.5194 H       1  UNL1        0.1473
     13 H          -5.5547   -0.5436    0.4380 H       1  UNL1        0.1486
     14 H          -4.2379    0.7108    2.1155 H       1  UNL1        0.1464
     15 H          -1.8041    0.9710    1.8337 H       1  UNL1        0.1544
     16 BR          0.3321    1.7799   -0.4282 Br      1  UNL1       -0.0916
     17 C           0.2605   -2.4500    0.1047 C.3     1  UNL1       -0.3386
     18 H           0.4577   -3.0434   -0.7905 H       1  UNL1        0.1525
     19 H           0.8864   -2.8515    0.9054 H       1  UNL1        0.1508
     20 H          -0.7835   -2.5715    0.3826 H       1  UNL1        0.1514
     21 N           2.9010   -0.4956    0.5481 N.am    1  UNL1       -0.1019
     22 C           4.3146   -0.2976    0.2988 C.3     1  UNL1       -0.2753
     23 C           2.4740   -0.2742    1.9146 C.3     1  UNL1       -0.3004
     24 H           4.5340   -0.5282   -0.7386 H       1  UNL1        0.1509
     25 H           4.5906    0.7391    0.5061 H       1  UNL1        0.1409
     26 H           4.8997   -0.9504    0.9494 H       1  UNL1        0.1417
     27 H           1.4146   -0.4828    2.0285 H       1  UNL1        0.1740
     28 H           3.0356   -0.9266    2.5858 H       1  UNL1        0.1500
     29 H           2.6582    0.7634    2.2032 H       1  UNL1        0.1484
@<TRIPOS>BOND
     1    11     6    1
     2     3     2    2
     3    12     7    1
     4     6     7   ar
     5     6     5   ar
     6    18    17    1
     7     7     8   ar
     8    24    22    1
     9     2     1    1
    10     2    21   am
    11    16     4    1
    12     4     1    2
    13     4     5    1
    14     1    17    1
    15     5    10   ar
    16    17    20    1
    17    17    19    1
    18    22    25    1
    19    22    21    1
    20    22    26    1
    21     8    13    1
    22     8     9   ar
    23    21    23    1
    24    10     9   ar
    25    10    15    1
    26     9    14    1
    27    23    27    1
    28    23    29    1
    29    23    28    1
