@<TRIPOS>MOLECULE
GS-119-1.out
 33 34 0 0 0
SMALL
MULLIKEN_CHARGES
****
Gaussian 16 # wB97XD def2tzvp, opt=(maxcycles=50, maxstep=1), freq=noraman, scrf=(
@<TRIPOS>ATOM
      1 C           0.5624    0.0809   -0.2479 C.2     1  UNL1       -0.0711
      2 C          -0.8621    0.5569   -0.3571 C.2     1  UNL1        0.4048
      3 O          -1.1217    1.6528   -0.8208 O.2     1  UNL1       -0.4592
      4 C           1.5903    0.8500    0.1155 C.2     1  UNL1        0.0100
      5 C           2.9843    0.3310    0.1373 C.ar    1  UNL1        0.1833
      6 C           3.6381    0.1272    1.3488 C.ar    1  UNL1       -0.2271
      7 C           4.9468   -0.3306    1.3701 C.ar    1  UNL1       -0.1441
      8 C           5.6198   -0.5722    0.1810 C.ar    1  UNL1       -0.1436
      9 C           4.9769   -0.3577   -1.0300 C.ar    1  UNL1       -0.1268
     10 C           3.6646    0.0889   -1.0523 C.ar    1  UNL1       -0.2315
     11 H           3.1177    0.3178    2.2797 H       1  UNL1        0.1556
     12 H           5.4420   -0.4964    2.3184 H       1  UNL1        0.1459
     13 H           6.6432   -0.9246    0.1979 H       1  UNL1        0.1472
     14 H           5.4977   -0.5393   -1.9616 H       1  UNL1        0.1461
     15 H           3.1621    0.2517   -1.9979 H       1  UNL1        0.1536
     16 C           1.4501    2.2811    0.5465 C.3     1  UNL1       -0.3400
     17 H           2.0088    2.4263    1.4732 H       1  UNL1        0.1442
     18 H           1.9052    2.9317   -0.2043 H       1  UNL1        0.1481
     19 H           0.4198    2.5877    0.6916 H       1  UNL1        0.1410
     20 CL          0.7989   -1.6132   -0.6279 Cl      1  UNL1       -0.1034
     21 N          -1.7861   -0.3205    0.1053 N.am    1  UNL1       -0.2679
     22 C          -3.1871   -0.2069    0.1203 C.ar    1  UNL1        0.3080
     23 C          -3.8729    0.9565   -0.2219 C.ar    1  UNL1       -0.2833
     24 C          -5.2601    0.9717   -0.1680 C.ar    1  UNL1       -0.1134
     25 C          -5.9752   -0.1482    0.2239 C.ar    1  UNL1       -0.1827
     26 C          -5.2871   -1.3042    0.5679 C.ar    1  UNL1       -0.1001
     27 C          -3.9058   -1.3359    0.5164 C.ar    1  UNL1       -0.2996
     28 H          -1.4261   -1.1995    0.4413 H       1  UNL1        0.2572
     29 H          -3.3274    1.8345   -0.5253 H       1  UNL1        0.1647
     30 H          -5.7834    1.8808   -0.4366 H       1  UNL1        0.1453
     31 H          -7.0564   -0.1229    0.2626 H       1  UNL1        0.1444
     32 H          -5.8274   -2.1897    0.8774 H       1  UNL1        0.1473
     33 H          -3.3771   -2.2433    0.7839 H       1  UNL1        0.1470
@<TRIPOS>BOND
     1    15    10    1
     2    14     9    1
     3    10     9   ar
     4    10     5   ar
     5     9     8   ar
     6     3     2    2
     7    20     1    1
     8    29    23    1
     9    30    24    1
    10     2     1    1
    11     2    21   am
    12     1     4    2
    13    23    24   ar
    14    23    22   ar
    15    18    16    1
    16    24    25   ar
    17    21    22    1
    18    21    28    1
    19     4     5    1
    20     4    16    1
    21    22    27   ar
    22     5     6   ar
    23     8    13    1
    24     8     7   ar
    25    25    31    1
    26    25    26   ar
    27    27    26   ar
    28    27    33    1
    29    16    19    1
    30    16    17    1
    31    26    32    1
    32     6     7   ar
    33     6    11    1
    34     7    12    1
