@<TRIPOS>MOLECULE
GS-125-1.out
 33 34 0 0 0
SMALL
MULLIKEN_CHARGES
****
Gaussian 16 # wB97XD def2tzvp, opt=(maxcycles=50, maxstep=1), freq=noraman, scrf=(
@<TRIPOS>ATOM
      1 C           0.7564    0.2752   -0.1096 C.2     1  UNL1       -0.0163
      2 C           2.2547    0.2251   -0.2827 C.2     1  UNL1        0.2875
      3 O           2.7666    0.2550   -1.3936 O.2     1  UNL1       -0.4676
      4 C           0.0117   -0.8271   -0.0898 C.2     1  UNL1        0.0325
      5 C          -1.4656   -0.8789   -0.0703 C.ar    1  UNL1        0.1421
      6 C          -2.1860   -0.2415   -1.0772 C.ar    1  UNL1       -0.2199
      7 C          -3.5717   -0.2562   -1.0619 C.ar    1  UNL1       -0.1453
      8 C          -4.2496   -0.9067   -0.0413 C.ar    1  UNL1       -0.1281
      9 C          -3.5359   -1.5503    0.9608 C.ar    1  UNL1       -0.1488
     10 C          -2.1510   -1.5430    0.9435 C.ar    1  UNL1       -0.2206
     11 H          -1.6556    0.2700   -1.8703 H       1  UNL1        0.1613
     12 H          -4.1219    0.2410   -1.8503 H       1  UNL1        0.1462
     13 H          -5.3319   -0.9163   -0.0282 H       1  UNL1        0.1482
     14 H          -4.0598   -2.0598    1.7593 H       1  UNL1        0.1463
     15 H          -1.5976   -2.0471    1.7261 H       1  UNL1        0.1534
     16 BR          0.8573   -2.5428   -0.1448 Br      1  UNL1       -0.0708
     17 C           0.1865    1.6428    0.0147 C.ar    1  UNL1        0.1535
     18 C          -0.6555    1.9687    1.0759 C.ar    1  UNL1       -0.2168
     19 C          -1.1724    3.2486    1.1936 C.ar    1  UNL1       -0.1529
     20 C          -0.8520    4.2194    0.2550 C.ar    1  UNL1       -0.1259
     21 C          -0.0043    3.9051   -0.7975 C.ar    1  UNL1       -0.1549
     22 C           0.5177    2.6263   -0.9151 C.ar    1  UNL1       -0.2158
     23 H          -0.9043    1.2148    1.8118 H       1  UNL1        0.1608
     24 H          -1.8248    3.4888    2.0234 H       1  UNL1        0.1442
     25 H          -1.2578    5.2188    0.3465 H       1  UNL1        0.1468
     26 H           0.2522    4.6580   -1.5319 H       1  UNL1        0.1446
     27 H           1.1778    2.3830   -1.7380 H       1  UNL1        0.1501
     28 N           2.9557    0.2028    0.8564 N.am    1  UNL1       -0.2863
     29 C           4.4025    0.1682    0.8701 C.3     1  UNL1       -0.2602
     30 H           2.4556    0.1486    1.7265 H       1  UNL1        0.2827
     31 H           4.8085    1.0050    0.3017 H       1  UNL1        0.1400
     32 H           4.7423    0.2403    1.8998 H       1  UNL1        0.1501
     33 H           4.7767   -0.7605    0.4356 H       1  UNL1        0.1396
@<TRIPOS>BOND
     1    11     6    1
     2    12     7    1
     3    27    22    1
     4    26    21    1
     5     3     2    2
     6     6     7   ar
     7     6     5   ar
     8     7     8   ar
     9    22    21   ar
    10    22    17   ar
    11    21    20   ar
    12     2     1    1
    13     2    28   am
    14    16     4    1
    15     1     4    2
    16     1    17    1
    17     4     5    1
    18     5    10   ar
    19     8    13    1
    20     8     9   ar
    21    17    18   ar
    22    20    25    1
    23    20    19   ar
    24    31    29    1
    25    33    29    1
    26    28    29    1
    27    28    30    1
    28    29    32    1
    29    10     9   ar
    30    10    15    1
    31     9    14    1
    32    18    19   ar
    33    18    23    1
    34    19    24    1
