@<TRIPOS>MOLECULE
GS-170-0.out
 21 21 0 0 0
SMALL
MULLIKEN_CHARGES
****
Gaussian 16 # wB97XD def2tzvp, opt=(maxcycles=50, maxstep=10), freq=noraman, geom=
@<TRIPOS>ATOM
      1 C          -1.2854   -0.7685    0.1961 C.2     1  UNL1       -0.2542
      2 C          -2.7648   -0.8270    0.1960 C.2     1  UNL1        0.2971
      3 O          -3.2746   -1.8980    0.4725 O.2     1  UNL1       -0.4041
      4 C          -0.4109    0.2180   -0.0261 C.2     1  UNL1        0.0952
      5 C           1.0521   -0.0049   -0.0108 C.ar    1  UNL1        0.2222
      6 C           1.9189    0.9226    0.5651 C.ar    1  UNL1       -0.2313
      7 C           3.2804    0.6747    0.6080 C.ar    1  UNL1       -0.1326
      8 C           3.7961   -0.4923    0.0619 C.ar    1  UNL1       -0.1421
      9 C           2.9419   -1.4125   -0.5274 C.ar    1  UNL1       -0.1275
     10 C           1.5780   -1.1726   -0.5633 C.ar    1  UNL1       -0.2593
     11 H           1.5266    1.8360    0.9922 H       1  UNL1        0.1554
     12 H           3.9412    1.3972    1.0692 H       1  UNL1        0.1497
     13 H           4.8617   -0.6803    0.0896 H       1  UNL1        0.1506
     14 H           3.3375   -2.3179   -0.9690 H       1  UNL1        0.1503
     15 H           0.9198   -1.8856   -1.0425 H       1  UNL1        0.1699
     16 CL         -0.8794    1.8590   -0.3487 Cl      1  UNL1       -0.0642
     17 H          -0.8489   -1.7315    0.4342 H       1  UNL1        0.1626
     18 C          -3.6223    0.3606   -0.1316 C.3     1  UNL1       -0.3820
     19 H          -3.4584    1.1602    0.5918 H       1  UNL1        0.1544
     20 H          -3.3707    0.7605   -1.1144 H       1  UNL1        0.1535
     21 H          -4.6654    0.0538   -0.1108 H       1  UNL1        0.1366
@<TRIPOS>BOND
     1    20    18    1
     2    15    10    1
     3    14     9    1
     4    10     9   ar
     5    10     5   ar
     6     9     8   ar
     7    16     4    1
     8    18    21    1
     9    18     2    1
    10    18    19    1
    11     4     5    1
    12     4     1    2
    13     5     6   ar
    14     8    13    1
    15     8     7   ar
    16     2     1    1
    17     2     3    2
    18     1    17    1
    19     6     7   ar
    20     6    11    1
    21     7    12    1
