@<TRIPOS>MOLECULE
GS-150-0.out
 26 26 0 0 0
SMALL
MULLIKEN_CHARGES
****
Gaussian 16 # wB97XD def2tzvp, opt=(calcfc, maxcycles=70, maxstep=10), freq=norama
@<TRIPOS>ATOM
      1 C          -0.6209    0.4804   -0.2219 C.2     1  UNL1       -0.0901
      2 C          -2.0843    0.2650   -0.5205 C.2     1  UNL1        0.2543
      3 O          -2.4515    0.3363   -1.6856 O.2     1  UNL1       -0.4678
      4 C           0.3070   -0.4618   -0.1642 C.2     1  UNL1       -0.0252
      5 C           1.7613   -0.2702    0.0052 C.ar    1  UNL1        0.1923
      6 C           2.3535   -0.4765    1.2474 C.ar    1  UNL1       -0.2013
      7 C           3.7171   -0.2872    1.4039 C.ar    1  UNL1       -0.1438
      8 C           4.4951    0.1002    0.3215 C.ar    1  UNL1       -0.1302
      9 C           3.9069    0.2998   -0.9192 C.ar    1  UNL1       -0.1298
     10 C           2.5424    0.1151   -1.0795 C.ar    1  UNL1       -0.2184
     11 H           1.7440   -0.7804    2.0895 H       1  UNL1        0.1567
     12 H           4.1728   -0.4420    2.3733 H       1  UNL1        0.1487
     13 H           5.5605    0.2459    0.4454 H       1  UNL1        0.1504
     14 H           4.5107    0.6008   -1.7655 H       1  UNL1        0.1493
     15 H           2.0783    0.2727   -2.0450 H       1  UNL1        0.1560
     16 BR         -0.2541   -2.2803   -0.3009 Br      1  UNL1       -0.0415
     17 BR         -0.1665    2.3106   -0.0544 Br      1  UNL1       -0.0129
     18 N          -2.8955    0.0357    0.5222 N.am    1  UNL1       -0.0971
     19 C          -4.3115   -0.1833    0.2982 C.3     1  UNL1       -0.2756
     20 C          -2.4628   -0.0655    1.9022 C.3     1  UNL1       -0.2970
     21 H          -4.5358   -0.0526   -0.7552 H       1  UNL1        0.1538
     22 H          -4.5842   -1.1952    0.6055 H       1  UNL1        0.1450
     23 H          -4.8914    0.5295    0.8870 H       1  UNL1        0.1455
     24 H          -1.4029    0.1488    1.9975 H       1  UNL1        0.1747
     25 H          -3.0201    0.6469    2.5128 H       1  UNL1        0.1519
     26 H          -2.6521   -1.0727    2.2792 H       1  UNL1        0.1522
@<TRIPOS>BOND
     1    15    10    1
     2    14     9    1
     3     3     2    2
     4    10     9   ar
     5    10     5   ar
     6     9     8   ar
     7    21    19    1
     8     2     1    1
     9     2    18   am
    10    16     4    1
    11     1     4    2
    12     1    17    1
    13     4     5    1
    14     5     6   ar
    15    19    18    1
    16    19    22    1
    17    19    23    1
    18     8    13    1
    19     8     7   ar
    20    18    20    1
    21     6     7   ar
    22     6    11    1
    23     7    12    1
    24    20    24    1
    25    20    26    1
    26    20    25    1
