@<TRIPOS>MOLECULE
GS-131-0.out
 20 20 0 0 0
SMALL
MULLIKEN_CHARGES
****
Gaussian 16 # wB97XD def2tzvp, opt=(maxcycles=50, maxstep=10), freq=noraman, geom=
@<TRIPOS>ATOM
      1 C           1.0154    1.2340   -0.2065 C.2     1  UNL1       -0.1900
      2 C           2.5085    1.2775   -0.2773 C.2     1  UNL1        0.3133
      3 O           3.0595    1.6399   -1.3061 O.2     1  UNL1       -0.4602
      4 C           0.2312    0.1772   -0.0357 C.2     1  UNL1       -0.0350
      5 C          -1.2455    0.2480   -0.0210 C.ar    1  UNL1        0.2215
      6 C          -2.0312   -0.6822   -0.6989 C.ar    1  UNL1       -0.2307
      7 C          -3.4105   -0.5596   -0.7077 C.ar    1  UNL1       -0.1355
      8 C          -4.0243    0.4847   -0.0298 C.ar    1  UNL1       -0.1438
      9 C          -3.2501    1.4070    0.6580 C.ar    1  UNL1       -0.1281
     10 C          -1.8692    1.2898    0.6645 C.ar    1  UNL1       -0.2551
     11 H          -1.5617   -1.5003   -1.2296 H       1  UNL1        0.1580
     12 H          -4.0083   -1.2834   -1.2464 H       1  UNL1        0.1485
     13 H          -5.1030    0.5745   -0.0324 H       1  UNL1        0.1494
     14 H          -3.7210    2.2170    1.2000 H       1  UNL1        0.1490
     15 H          -1.2700    2.0018    1.2177 H       1  UNL1        0.1680
     16 BR          0.9723   -1.5678    0.1848 Br      1  UNL1       -0.0631
     17 H           0.5378    2.1856   -0.4126 H       1  UNL1        0.1940
     18 N           3.1722    0.9561    0.8430 N.am    1  UNL1       -0.4428
     19 H           4.1781    0.9570    0.8396 H       1  UNL1        0.2847
     20 H           2.6919    0.6493    1.6695 H       1  UNL1        0.2981
@<TRIPOS>BOND
     1     3     2    2
     2    12     7    1
     3    11     6    1
     4     7     6   ar
     5     7     8   ar
     6     6     5   ar
     7    17     1    1
     8     2     1    1
     9     2    18   am
    10     1     4    2
    11     4     5    1
    12     4    16    1
    13    13     8    1
    14     8     9   ar
    15     5    10   ar
    16     9    10   ar
    17     9    14    1
    18    10    15    1
    19    19    18    1
    20    18    20    1
