@<TRIPOS>MOLECULE
GS-194-0.out
 21 21 0 0 0
SMALL
MULLIKEN_CHARGES
****
Gaussian 16 # wB97XD def2tzvp, opt=(calcfc, maxcycles=70, maxstep=10), freq=norama
@<TRIPOS>ATOM
      1 C           1.2310   -0.3386   -0.0531 C.2     1  UNL1       -0.0171
      2 C           2.7039   -0.0241   -0.1114 C.2     1  UNL1        0.2399
      3 O           3.1206    0.7824   -0.9056 O.2     1  UNL1       -0.3513
      4 C           0.2330    0.5467   -0.0748 C.2     1  UNL1        0.0271
      5 C          -1.2089    0.2198   -0.0279 C.ar    1  UNL1        0.2073
      6 C          -1.9800    0.6030    1.0658 C.ar    1  UNL1       -0.2214
      7 C          -3.3305    0.2973    1.1026 C.ar    1  UNL1       -0.1316
      8 C          -3.9213   -0.3775    0.0431 C.ar    1  UNL1       -0.1432
      9 C          -3.1570   -0.7498   -1.0531 C.ar    1  UNL1       -0.1180
     10 C          -1.8030   -0.4558   -1.0891 C.ar    1  UNL1       -0.2319
     11 H          -1.5207    1.1356    1.8891 H       1  UNL1        0.1553
     12 H          -3.9232    0.5886    1.9600 H       1  UNL1        0.1497
     13 H          -4.9779   -0.6108    0.0713 H       1  UNL1        0.1506
     14 H          -3.6147   -1.2708   -1.8840 H       1  UNL1        0.1502
     15 H          -1.2045   -0.7475   -1.9427 H       1  UNL1        0.1632
     16 CL          0.5707    2.2507   -0.1113 Cl      1  UNL1       -0.0563
     17 CL          0.8748   -2.0313    0.1170 Cl      1  UNL1       -0.0632
     18 C           3.6030   -0.7593    0.8403 C.3     1  UNL1       -0.3833
     19 H           3.1445   -0.8531    1.8249 H       1  UNL1        0.1605
     20 H           3.7836   -1.7686    0.4651 H       1  UNL1        0.1657
     21 H           4.5517   -0.2324    0.9077 H       1  UNL1        0.1478
@<TRIPOS>BOND
     1    15    10    1
     2    14     9    1
     3    10     9   ar
     4    10     5   ar
     5     9     8   ar
     6     3     2    2
     7     2     1    1
     8     2    18    1
     9    16     4    1
    10     4     1    2
    11     4     5    1
    12     1    17    1
    13     5     6   ar
    14     8    13    1
    15     8     7   ar
    16    20    18    1
    17    18    21    1
    18    18    19    1
    19     6     7   ar
    20     6    11    1
    21     7    12    1
