@<TRIPOS>MOLECULE
GS-10-1.out
 31 32 0 0 0
SMALL
MULLIKEN_CHARGES
****
Gaussian 16 # wB97XD def2tzvp, opt=(maxcycles=70, maxstep=1), freq=noraman, scrf=(
@<TRIPOS>ATOM
      1 C           0.2474    1.8507   -0.1302 C.2     1  UNL1       -0.2774
      2 C           1.5939    2.4570   -0.0440 C.2     1  UNL1        0.2701
      3 O           1.7478    3.5783   -0.4973 O.2     1  UNL1       -0.4159
      4 C          -0.1198    0.5622   -0.0421 C.2     1  UNL1        0.1758
      5 C          -1.5586    0.1977   -0.0463 C.ar    1  UNL1        0.1022
      6 C          -1.9887   -0.9680   -0.6814 C.ar    1  UNL1       -0.2171
      7 C          -3.3330   -1.3016   -0.7125 C.ar    1  UNL1       -0.1501
      8 C          -4.2682   -0.4853   -0.0926 C.ar    1  UNL1       -0.1339
      9 C          -3.8503    0.6670    0.5584 C.ar    1  UNL1       -0.1357
     10 C          -2.5075    1.0062    0.5808 C.ar    1  UNL1       -0.2480
     11 H          -1.2654   -1.6125   -1.1648 H       1  UNL1        0.1657
     12 H          -3.6504   -2.2034   -1.2203 H       1  UNL1        0.1452
     13 H          -5.3177   -0.7502   -0.1093 H       1  UNL1        0.1478
     14 H          -4.5718    1.3003    1.0588 H       1  UNL1        0.1459
     15 H          -2.1890    1.8950    1.1107 H       1  UNL1        0.1647
     16 C           0.8416   -0.5675    0.0055 C.ar    1  UNL1        0.1466
     17 C           0.8403   -1.4451    1.0882 C.ar    1  UNL1       -0.2017
     18 C           1.7401   -2.4964    1.1382 C.ar    1  UNL1       -0.1422
     19 C           2.6323   -2.7005    0.0932 C.ar    1  UNL1       -0.1291
     20 C           2.6196   -1.8483   -1.0005 C.ar    1  UNL1       -0.1215
     21 C           1.7294   -0.7856   -1.0429 C.ar    1  UNL1       -0.2786
     22 H           0.1391   -1.2924    1.8995 H       1  UNL1        0.1508
     23 H           1.7431   -3.1615    1.9923 H       1  UNL1        0.1458
     24 H           3.3301   -3.5272    0.1297 H       1  UNL1        0.1480
     25 H           3.3038   -2.0094   -1.8238 H       1  UNL1        0.1463
     26 H           1.7185   -0.1193   -1.8967 H       1  UNL1        0.1618
     27 H          -0.5216    2.5959   -0.3020 H       1  UNL1        0.1521
     28 C           2.7435    1.7666    0.6454 C.3     1  UNL1       -0.3684
     29 H           2.4150    1.0615    1.4063 H       1  UNL1        0.1462
     30 H           3.3292    1.2134   -0.0904 H       1  UNL1        0.1577
     31 H           3.3832    2.5296    1.0857 H       1  UNL1        0.1469
@<TRIPOS>BOND
     1    26    21    1
     2    25    20    1
     3    12     7    1
     4    11     6    1
     5    21    20   ar
     6    21    16   ar
     7    20    19   ar
     8     7     6   ar
     9     7     8   ar
    10     6     5   ar
    11     3     2    2
    12    27     1    1
    13     1     2    1
    14     1     4    2
    15    13     8    1
    16     8     9   ar
    17    30    28    1
    18     5     4    1
    19     5    10   ar
    20     2    28    1
    21     4    16    1
    22    16    17   ar
    23    19    24    1
    24    19    18   ar
    25     9    10   ar
    26     9    14    1
    27    10    15    1
    28    28    31    1
    29    28    29    1
    30    17    18   ar
    31    17    22    1
    32    18    23    1
