@<TRIPOS>MOLECULE
GS-152-0.out
 28 29 0 0 0
SMALL
MULLIKEN_CHARGES
****
Gaussian 16 # wB97XD def2tzvp, opt=(maxcycles=50, maxstep=10), freq=noraman, geom=
@<TRIPOS>ATOM
      1 C           0.0612    0.5430   -0.5217 C.2     1  UNL1       -0.0239
      2 C           1.4654    0.4003   -1.0645 C.2     1  UNL1        0.3089
      3 O           1.6451    0.5171   -2.2540 O.2     1  UNL1       -0.3567
      4 C          -0.8017   -0.4401   -0.3246 C.2     1  UNL1       -0.0317
      5 C          -2.1956   -0.3186    0.1469 C.ar    1  UNL1        0.1666
      6 C          -2.5113   -0.6035    1.4719 C.ar    1  UNL1       -0.2017
      7 C          -3.8186   -0.4786    1.9133 C.ar    1  UNL1       -0.1443
      8 C          -4.8151   -0.0775    1.0340 C.ar    1  UNL1       -0.1279
      9 C          -4.5022    0.2009   -0.2887 C.ar    1  UNL1       -0.1318
     10 C          -3.1950    0.0811   -0.7340 C.ar    1  UNL1       -0.2175
     11 H          -1.7317   -0.9176    2.1549 H       1  UNL1        0.1579
     12 H          -4.0595   -0.6946    2.9461 H       1  UNL1        0.1489
     13 H          -5.8362    0.0176    1.3804 H       1  UNL1        0.1507
     14 H          -5.2770    0.5132   -0.9769 H       1  UNL1        0.1494
     15 H          -2.9452    0.3002   -1.7645 H       1  UNL1        0.1557
     16 BR         -0.2173   -2.2230   -0.6722 Br      1  UNL1       -0.0380
     17 BR         -0.3911    2.3444   -0.1650 Br      1  UNL1       -0.0080
     18 C           2.5608    0.1579   -0.0956 C.ar    1  UNL1        0.0236
     19 C           3.8688    0.0691   -0.5718 C.ar    1  UNL1       -0.2084
     20 C           4.9108   -0.1618    0.3062 C.ar    1  UNL1       -0.1248
     21 C           4.6542   -0.3053    1.6650 C.ar    1  UNL1       -0.1142
     22 C           3.3555   -0.2173    2.1448 C.ar    1  UNL1       -0.1573
     23 C           2.3092    0.0140    1.2673 C.ar    1  UNL1       -0.1669
     24 H           4.0531    0.1825   -1.6317 H       1  UNL1        0.1516
     25 H           5.9251   -0.2309   -0.0644 H       1  UNL1        0.1525
     26 H           5.4713   -0.4866    2.3515 H       1  UNL1        0.1546
     27 H           3.1574   -0.3297    3.2024 H       1  UNL1        0.1512
     28 H           1.2969    0.0788    1.6452 H       1  UNL1        0.1813
@<TRIPOS>BOND
     1     3     2    2
     2    15    10    1
     3    24    19    1
     4     2     1    1
     5     2    18    1
     6    14     9    1
     7    10     9   ar
     8    10     5   ar
     9    16     4    1
    10    19    18   ar
    11    19    20   ar
    12     1     4    2
    13     1    17    1
    14     4     5    1
    15     9     8   ar
    16    18    23   ar
    17    25    20    1
    18     5     6   ar
    19    20    21   ar
    20     8    13    1
    21     8     7   ar
    22    23    28    1
    23    23    22   ar
    24     6     7   ar
    25     6    11    1
    26    21    22   ar
    27    21    26    1
    28     7    12    1
    29    22    27    1
