@<TRIPOS>MOLECULE
GS-129-0.out
 18 18 0 0 0
SMALL
MULLIKEN_CHARGES
****
Gaussian 16 # wB97XD def2tzvp, opt=(maxcycles=50, maxstep=10), freq=noraman, geom=
@<TRIPOS>ATOM
      1 C          -1.2277    1.3063    0.2194 C.2     1  UNL1       -0.1806
      2 C          -2.6875    1.3701    0.1897 C.2     1  UNL1        0.1630
      3 O          -3.2985    2.4003    0.3713 O.2     1  UNL1       -0.3762
      4 C          -0.4728    0.2166    0.0454 C.2     1  UNL1        0.0140
      5 C           1.0012    0.2439    0.0335 C.ar    1  UNL1        0.2242
      6 C           1.7581   -0.7553    0.6443 C.ar    1  UNL1       -0.2223
      7 C           3.1400   -0.6747    0.6589 C.ar    1  UNL1       -0.1357
      8 C           3.7844    0.3922    0.0484 C.ar    1  UNL1       -0.1379
      9 C           3.0394    1.3823   -0.5751 C.ar    1  UNL1       -0.1287
     10 C           1.6563    1.3120   -0.5815 C.ar    1  UNL1       -0.2547
     11 H           1.2647   -1.5916    1.1217 H       1  UNL1        0.1617
     12 H           3.7156   -1.4500    1.1475 H       1  UNL1        0.1507
     13 H           4.8653    0.4478    0.0533 H       1  UNL1        0.1517
     14 H           3.5352    2.2100   -1.0653 H       1  UNL1        0.1514
     15 H           1.0816    2.0778   -1.0858 H       1  UNL1        0.1695
     16 BR         -1.2593   -1.4952   -0.2183 Br      1  UNL1       -0.0407
     17 H          -0.7243    2.2474    0.4097 H       1  UNL1        0.1775
     18 H          -3.2234    0.4286   -0.0101 H       1  UNL1        0.1131
@<TRIPOS>BOND
     1    15    10    1
     2    14     9    1
     3    10     9   ar
     4    10     5   ar
     5     9     8   ar
     6    16     4    1
     7    18     2    1
     8     5     4    1
     9     5     6   ar
    10     4     1    2
    11     8    13    1
    12     8     7   ar
    13     2     1    1
    14     2     3    2
    15     1    17    1
    16     6     7   ar
    17     6    11    1
    18     7    12    1
