@<TRIPOS>MOLECULE
GS-169-0.out
 18 18 0 0 0
SMALL
MULLIKEN_CHARGES
****
Gaussian 16 # wb97xd def2tzvp opt=(calcfc, maxcycles=100, maxstep=10) freq=noraman
@<TRIPOS>ATOM
      1 C          -1.6327   -0.7460    0.1890 C.2     1  UNL1       -0.1684
      2 C          -3.0818   -0.5814    0.1320 C.2     1  UNL1        0.1582
      3 O          -3.8518   -1.4896    0.3598 O.2     1  UNL1       -0.3804
      4 C          -0.7233    0.2111   -0.0327 C.2     1  UNL1        0.0505
      5 C           0.7330   -0.0179   -0.0099 C.ar    1  UNL1        0.2132
      6 C           1.6126    0.9516    0.4704 C.ar    1  UNL1       -0.2220
      7 C           2.9725    0.6967    0.5230 C.ar    1  UNL1       -0.1322
      8 C           3.4728   -0.5199    0.0815 C.ar    1  UNL1       -0.1376
      9 C           2.6057   -1.4838   -0.4126 C.ar    1  UNL1       -0.1299
     10 C           1.2442   -1.2373   -0.4573 C.ar    1  UNL1       -0.2452
     11 H           1.2316    1.9031    0.8161 H       1  UNL1        0.1572
     12 H           3.6437    1.4527    0.9090 H       1  UNL1        0.1509
     13 H           4.5371   -0.7137    0.1159 H       1  UNL1        0.1518
     14 H           2.9903   -2.4289   -0.7729 H       1  UNL1        0.1515
     15 H           0.5777   -1.9863   -0.8644 H       1  UNL1        0.1660
     16 CL         -1.2144    1.8453   -0.3701 Cl      1  UNL1       -0.0642
     17 H          -1.2804   -1.7381    0.4432 H       1  UNL1        0.1736
     18 H          -3.4598    0.4187   -0.1328 H       1  UNL1        0.1071
@<TRIPOS>BOND
     1    15    10    1
     2    14     9    1
     3    10     9   ar
     4    10     5   ar
     5     9     8   ar
     6    16     4    1
     7    18     2    1
     8     4     5    1
     9     4     1    2
    10     5     6   ar
    11     8    13    1
    12     8     7   ar
    13     2     1    1
    14     2     3    2
    15     1    17    1
    16     6     7   ar
    17     6    11    1
    18     7    12    1
