@<TRIPOS>MOLECULE
GS-162-1.out
 31 32 0 0 0
SMALL
MULLIKEN_CHARGES
****
Gaussian 16 # wB97XD def2tzvp, opt=(maxcycles=50, maxstep=1), freq=noraman, scrf=(
@<TRIPOS>ATOM
      1 C           0.8697   -0.7366   -0.0647 C.2     1  UNL1        0.0456
      2 C           2.0418   -1.6888   -0.1169 C.2     1  UNL1        0.1828
      3 O           2.4709   -2.0790   -1.1762 O.2     1  UNL1       -0.3614
      4 C          -0.3859   -1.1745   -0.0863 C.2     1  UNL1        0.0701
      5 C          -1.6070   -0.3424   -0.1269 C.ar    1  UNL1        0.1293
      6 C          -1.7426    0.6365   -1.1079 C.ar    1  UNL1       -0.2232
      7 C          -2.8705    1.4408   -1.1414 C.ar    1  UNL1       -0.1420
      8 C          -3.8724    1.2747   -0.1962 C.ar    1  UNL1       -0.1308
      9 C          -3.7463    0.2941    0.7783 C.ar    1  UNL1       -0.1449
     10 C          -2.6228   -0.5155    0.8098 C.ar    1  UNL1       -0.2244
     11 H          -0.9602    0.7669   -1.8443 H       1  UNL1        0.1637
     12 H          -2.9672    2.1971   -1.9097 H       1  UNL1        0.1463
     13 H          -4.7524    1.9045   -0.2213 H       1  UNL1        0.1483
     14 H          -4.5256    0.1590    1.5173 H       1  UNL1        0.1466
     15 H          -2.5285   -1.2800    1.5707 H       1  UNL1        0.1511
     16 CL         -0.6846   -2.9037   -0.0815 Cl      1  UNL1       -0.0970
     17 C           1.2437    0.6956    0.0548 C.ar    1  UNL1        0.1196
     18 C           0.7335    1.4826    1.0856 C.ar    1  UNL1       -0.2084
     19 C           1.0998    2.8135    1.1976 C.ar    1  UNL1       -0.1484
     20 C           1.9844    3.3731    0.2857 C.ar    1  UNL1       -0.1256
     21 C           2.5071    2.5920   -0.7346 C.ar    1  UNL1       -0.1556
     22 C           2.1445    1.2584   -0.8467 C.ar    1  UNL1       -0.1995
     23 H           0.0466    1.0471    1.7999 H       1  UNL1        0.1611
     24 H           0.6958    3.4148    2.0021 H       1  UNL1        0.1451
     25 H           2.2692    4.4137    0.3736 H       1  UNL1        0.1478
     26 H           3.1996    3.0209   -1.4474 H       1  UNL1        0.1457
     27 H           2.5521    0.6535   -1.6471 H       1  UNL1        0.1523
     28 C           2.6428   -2.0535    1.2060 C.3     1  UNL1       -0.3565
     29 H           1.8943   -2.5786    1.8041 H       1  UNL1        0.1557
     30 H           3.5215   -2.6800    1.0711 H       1  UNL1        0.1437
     31 H           2.9058   -1.1438    1.7503 H       1  UNL1        0.1629
@<TRIPOS>BOND
     1    12     7    1
     2    11     6    1
     3    27    22    1
     4    26    21    1
     5     3     2    2
     6     7     6   ar
     7     7     8   ar
     8     6     5   ar
     9    22    21   ar
    10    22    17   ar
    11    21    20   ar
    12    13     8    1
    13     8     9   ar
    14     5     4    1
    15     5    10   ar
    16     2     1    1
    17     2    28    1
    18     4    16    1
    19     4     1    2
    20     1    17    1
    21    17    18   ar
    22    20    25    1
    23    20    19   ar
    24     9    10   ar
    25     9    14    1
    26    10    15    1
    27    30    28    1
    28    18    19   ar
    29    18    23    1
    30    19    24    1
    31    28    31    1
    32    28    29    1
