@<TRIPOS>MOLECULE
GS-149-3.out
 23 23 0 0 0
SMALL
MULLIKEN_CHARGES
****
Gaussian 16 # wB97XD def2tzvp, opt=(maxcycles=50, maxstep=5), freq=noraman, scrf=(
@<TRIPOS>ATOM
      1 C          -0.7574    0.4842   -0.1257 C.2     1  UNL1       -0.0489
      2 C          -2.2419    0.2637   -0.2789 C.2     1  UNL1        0.3038
      3 O          -2.7734    0.3356   -1.3751 O.2     1  UNL1       -0.4572
      4 C           0.1652   -0.4634   -0.0502 C.2     1  UNL1       -0.0444
      5 C           1.6259   -0.2709    0.0591 C.ar    1  UNL1        0.1826
      6 C           2.1895    0.0799    1.2816 C.ar    1  UNL1       -0.2108
      7 C           3.5595    0.2643    1.3849 C.ar    1  UNL1       -0.1337
      8 C           4.3698    0.0997    0.2709 C.ar    1  UNL1       -0.1310
      9 C           3.8087   -0.2529   -0.9489 C.ar    1  UNL1       -0.1413
     10 C           2.4404   -0.4427   -1.0558 C.ar    1  UNL1       -0.2017
     11 H           1.5529    0.2108    2.1476 H       1  UNL1        0.1573
     12 H           3.9936    0.5380    2.3378 H       1  UNL1        0.1492
     13 H           5.4392    0.2454    0.3527 H       1  UNL1        0.1505
     14 H           4.4379   -0.3805   -1.8202 H       1  UNL1        0.1493
     15 H           2.0005   -0.7199   -2.0058 H       1  UNL1        0.1553
     16 BR         -0.3960   -2.2866   -0.1000 Br      1  UNL1       -0.0387
     17 BR         -0.2779    2.3146   -0.1575 Br      1  UNL1       -0.0174
     18 N          -2.8942    0.0210    0.8612 N.am    1  UNL1       -0.2938
     19 C          -4.3203   -0.2272    0.8887 C.3     1  UNL1       -0.2550
     20 H          -2.3676   -0.0458    1.7147 H       1  UNL1        0.2877
     21 H          -4.6330   -0.3352    1.9235 H       1  UNL1        0.1525
     22 H          -4.8602    0.6051    0.4372 H       1  UNL1        0.1428
     23 H          -4.5670   -1.1394    0.3433 H       1  UNL1        0.1428
@<TRIPOS>BOND
     1    15    10    1
     2    14     9    1
     3     3     2    2
     4    10     9   ar
     5    10     5   ar
     6     9     8   ar
     7     2     1    1
     8     2    18   am
     9    17     1    1
    10     1     4    2
    11    16     4    1
    12     4     5    1
    13     5     6   ar
    14     8    13    1
    15     8     7   ar
    16    23    19    1
    17    22    19    1
    18    18    19    1
    19    18    20    1
    20    19    21    1
    21     6     7   ar
    22     6    11    1
    23     7    12    1
