@<TRIPOS>MOLECULE
GS-171-0.out
 20 20 0 0 0
SMALL
MULLIKEN_CHARGES
****
Gaussian 16 # wB97XD def2tzvp, opt=(maxcycles=50, maxstep=10), freq=noraman, geom=
@<TRIPOS>ATOM
      1 C          -1.3023   -0.7315    0.2715 C.2     1  UNL1       -0.2345
      2 C          -2.7894   -0.7747    0.2002 C.2     1  UNL1        0.3453
      3 O          -3.3305   -1.8600    0.0222 O.2     1  UNL1       -0.4798
      4 C          -0.4169    0.2157   -0.0331 C.2     1  UNL1        0.0564
      5 C           1.0452   -0.0091   -0.0018 C.ar    1  UNL1        0.2232
      6 C           1.5678   -1.2207   -0.4524 C.ar    1  UNL1       -0.2561
      7 C           2.9311   -1.4609   -0.3943 C.ar    1  UNL1       -0.1267
      8 C           3.7880   -0.4954    0.1126 C.ar    1  UNL1       -0.1463
      9 C           3.2754    0.7160    0.5553 C.ar    1  UNL1       -0.1288
     10 C           1.9142    0.9623    0.4923 C.ar    1  UNL1       -0.2339
     11 H           0.9074   -1.9699   -0.8695 H       1  UNL1        0.1675
     12 H           3.3241   -2.4024   -0.7556 H       1  UNL1        0.1500
     13 H           4.8532   -0.6828    0.1560 H       1  UNL1        0.1501
     14 H           3.9383    1.4743    0.9514 H       1  UNL1        0.1494
     15 H           1.5238    1.9101    0.8390 H       1  UNL1        0.1550
     16 CL         -0.8887    1.8215   -0.5258 Cl      1  UNL1       -0.0863
     17 H          -0.8908   -1.6891    0.5656 H       1  UNL1        0.1767
     18 N          -3.4910    0.3577    0.3643 N.am    1  UNL1       -0.4363
     19 H          -4.4941    0.3123    0.3154 H       1  UNL1        0.2820
     20 H          -3.0515    1.2485    0.5059 H       1  UNL1        0.2731
@<TRIPOS>BOND
     1    11     6    1
     2    12     7    1
     3    16     4    1
     4     6     7   ar
     5     6     5   ar
     6     7     8   ar
     7     4     5    1
     8     4     1    2
     9     5    10   ar
    10     3     2    2
    11     8    13    1
    12     8     9   ar
    13     2     1    1
    14     2    18   am
    15     1    17    1
    16    19    18    1
    17    18    20    1
    18    10     9   ar
    19    10    15    1
    20     9    14    1
