@<TRIPOS>MOLECULE
GS-1000-0.out
 18 18 0 0 0
SMALL
MULLIKEN_CHARGES
****
Gaussian 16 # wB97XD def2tzvp, opt=(calcfc, maxcycles=70, maxstep=10), freq=norama
@<TRIPOS>ATOM
      1 C           1.0001    0.6058    0.1749 C.2     1  UNL1       -0.0144
      2 C          -0.3055    0.6569    0.9494 C.2     1  UNL1        0.3520
      3 O          -0.2819    1.0665    2.0849 O.2     1  UNL1       -0.3476
      4 C           1.7550   -0.4812    0.0833 C.2     1  UNL1        0.0085
      5 CL          3.2643   -0.5387   -0.7205 Cl      1  UNL1       -0.0144
      6 CL          1.2425   -1.9624    0.7946 Cl      1  UNL1       -0.0163
      7 CL          1.4508    2.1113   -0.5188 Cl      1  UNL1       -0.0313
      8 C          -1.5424    0.2391    0.2533 C.ar    1  UNL1        0.0328
      9 C          -2.7478    0.2670    0.9557 C.ar    1  UNL1       -0.2048
     10 C          -3.9200   -0.1163    0.3328 C.ar    1  UNL1       -0.1206
     11 C          -3.8976   -0.5268   -0.9955 C.ar    1  UNL1       -0.1144
     12 C          -2.7030   -0.5542   -1.6998 C.ar    1  UNL1       -0.1500
     13 C          -1.5256   -0.1736   -1.0775 C.ar    1  UNL1       -0.1765
     14 H          -2.7499    0.5895    1.9884 H       1  UNL1        0.1536
     15 H          -4.8539   -0.0969    0.8788 H       1  UNL1        0.1536
     16 H          -4.8170   -0.8265   -1.4822 H       1  UNL1        0.1558
     17 H          -2.6877   -0.8731   -2.7335 H       1  UNL1        0.1538
     18 H          -0.5960   -0.1980   -1.6314 H       1  UNL1        0.1802
@<TRIPOS>BOND
     1    17    12    1
     2    12    13   ar
     3    12    11   ar
     4    18    13    1
     5    16    11    1
     6    13     8   ar
     7    11    10   ar
     8     5     4    1
     9     7     1    1
    10     4     1    2
    11     4     6    1
    12     1     2    1
    13     8     2    1
    14     8     9   ar
    15    10    15    1
    16    10     9   ar
    17     2     3    2
    18     9    14    1
