@<TRIPOS>MOLECULE
GS-106-0.out
 24 24 0 0 0
SMALL
MULLIKEN_CHARGES
****
Gaussian 16 # wB97XD def2tzvp, opt=(maxcycles=50, maxstep=10), freq=noraman, geom=
@<TRIPOS>ATOM
      1 C           1.1229    0.2865   -0.0626 C.2     1  UNL1       -0.0694
      2 C           2.5572    0.7203   -0.1069 C.2     1  UNL1        0.2502
      3 O           2.8851    1.6513   -0.8083 O.2     1  UNL1       -0.3785
      4 C           0.0733    1.1118   -0.0259 C.2     1  UNL1       -0.0012
      5 C          -1.3276    0.6109   -0.0020 C.ar    1  UNL1        0.2123
      6 C          -2.0687    0.6543    1.1746 C.ar    1  UNL1       -0.2186
      7 C          -3.3824    0.2108    1.1900 C.ar    1  UNL1       -0.1457
      8 C          -3.9715   -0.2629    0.0264 C.ar    1  UNL1       -0.1405
      9 C          -3.2406   -0.2938   -1.1528 C.ar    1  UNL1       -0.1309
     10 C          -1.9234    0.1389   -1.1672 C.ar    1  UNL1       -0.2268
     11 H          -1.6124    1.0268    2.0840 H       1  UNL1        0.1542
     12 H          -3.9472    0.2377    2.1132 H       1  UNL1        0.1458
     13 H          -4.9985   -0.6049    0.0380 H       1  UNL1        0.1473
     14 H          -3.6958   -0.6578   -2.0651 H       1  UNL1        0.1461
     15 H          -1.3508    0.1085   -2.0861 H       1  UNL1        0.1525
     16 C           0.1902    2.6088    0.0177 C.3     1  UNL1       -0.3406
     17 H          -0.4703    2.9917    0.7979 H       1  UNL1        0.1459
     18 H           1.2021    2.9589    0.1916 H       1  UNL1        0.1395
     19 H          -0.1624    3.0242   -0.9297 H       1  UNL1        0.1505
     20 BR          0.8853   -1.6080   -0.0070 Br      1  UNL1       -0.0756
     21 C           3.5594   -0.0176    0.7369 C.3     1  UNL1       -0.3835
     22 H           3.1393   -0.3024    1.7013 H       1  UNL1        0.1568
     23 H           3.8613   -0.9345    0.2266 H       1  UNL1        0.1644
     24 H           4.4358    0.6123    0.8717 H       1  UNL1        0.1456
@<TRIPOS>BOND
     1    15    10    1
     2    14     9    1
     3    10     9   ar
     4    10     5   ar
     5     9     8   ar
     6    19    16    1
     7     3     2    2
     8     2     1    1
     9     2    21    1
    10     1     4    2
    11     1    20    1
    12     4     5    1
    13     4    16    1
    14     5     6   ar
    15    16    18    1
    16    16    17    1
    17     8    13    1
    18     8     7   ar
    19    23    21    1
    20    21    24    1
    21    21    22    1
    22     6     7   ar
    23     6    11    1
    24     7    12    1
