@<TRIPOS>MOLECULE
GS-111-0.out
 33 34 0 0 0
SMALL
MULLIKEN_CHARGES
****
Gaussian 16 # wB97XD def2tzvp, opt=(calcfc, maxcycles=70, maxstep=10), freq=norama
@<TRIPOS>ATOM
      1 C          -0.4529    0.3935    0.2673 C.2     1  UNL1       -0.0679
      2 C           1.0100    0.5667    0.5811 C.2     1  UNL1        0.3433
      3 O           1.3896    1.3411    1.4387 O.2     1  UNL1       -0.4466
      4 C          -1.1711   -0.6880    0.5538 C.2     1  UNL1       -0.0283
      5 C          -2.6187   -0.8004    0.2326 C.ar    1  UNL1        0.1641
      6 C          -3.0341   -1.0225   -1.0765 C.ar    1  UNL1       -0.2189
      7 C          -4.3826   -1.1582   -1.3691 C.ar    1  UNL1       -0.1404
      8 C          -5.3274   -1.0701   -0.3567 C.ar    1  UNL1       -0.1344
      9 C          -4.9179   -0.8522    0.9511 C.ar    1  UNL1       -0.1483
     10 C          -3.5689   -0.7253    1.2462 C.ar    1  UNL1       -0.2227
     11 H          -2.2966   -1.0864   -1.8673 H       1  UNL1        0.1533
     12 H          -4.6953   -1.3318   -2.3910 H       1  UNL1        0.1454
     13 H          -6.3804   -1.1726   -0.5861 H       1  UNL1        0.1472
     14 H          -5.6502   -0.7818    1.7453 H       1  UNL1        0.1457
     15 H          -3.2523   -0.5569    2.2685 H       1  UNL1        0.1540
     16 C          -0.5772   -1.8856    1.2432 C.3     1  UNL1       -0.3367
     17 H          -0.6413   -2.7573    0.5882 H       1  UNL1        0.1520
     18 H           0.4603   -1.7434    1.5380 H       1  UNL1        0.1411
     19 H          -1.1627   -2.1120    2.1367 H       1  UNL1        0.1523
     20 BR         -1.2019    1.9577   -0.5091 Br      1  UNL1       -0.0575
     21 N           1.8130   -0.2056   -0.1905 N.am    1  UNL1       -0.2603
     22 C           3.2137   -0.3381   -0.1665 C.ar    1  UNL1        0.3142
     23 C           3.7774   -1.2338   -1.0754 C.ar    1  UNL1       -0.3018
     24 C           5.1468   -1.4209   -1.1134 C.ar    1  UNL1       -0.0975
     25 C           5.9744   -0.7196   -0.2466 C.ar    1  UNL1       -0.1817
     26 C           5.4116    0.1689    0.6553 C.ar    1  UNL1       -0.1115
     27 C           4.0386    0.3683    0.7052 C.ar    1  UNL1       -0.2903
     28 H           1.3369   -0.7755   -0.8712 H       1  UNL1        0.2811
     29 H           3.1377   -1.7853   -1.7543 H       1  UNL1        0.1473
     30 H           5.5680   -2.1196   -1.8249 H       1  UNL1        0.1478
     31 H           7.0462   -0.8658   -0.2756 H       1  UNL1        0.1450
     32 H           6.0454    0.7221    1.3368 H       1  UNL1        0.1461
     33 H           3.6103    1.0623    1.4095 H       1  UNL1        0.1650
@<TRIPOS>BOND
     1    12     7    1
     2    11     6    1
     3    30    24    1
     4    29    23    1
     5     7     6   ar
     6     7     8   ar
     7    24    23   ar
     8    24    25   ar
     9     6     5   ar
    10    23    22   ar
    11    28    21    1
    12    13     8    1
    13    20     1    1
    14     8     9   ar
    15    31    25    1
    16    25    26   ar
    17    21    22    1
    18    21     2   am
    19    22    27   ar
    20     5     4    1
    21     5    10   ar
    22     1     4    2
    23     1     2    1
    24     4    16    1
    25     2     3    2
    26    17    16    1
    27    26    27   ar
    28    26    32    1
    29    27    33    1
    30     9    10   ar
    31     9    14    1
    32    16    18    1
    33    16    19    1
    34    10    15    1
