@<TRIPOS>MOLECULE
GS-153-0.out
 18 18 0 0 0
SMALL
MULLIKEN_CHARGES
****
Gaussian 16 # wB97XD def2tzvp, opt=(calcfc, maxcycles=70, maxstep=10), freq=norama
@<TRIPOS>ATOM
      1 C           1.2964    0.8030   -0.0589 C.2     1  UNL1        0.0236
      2 C           2.7624    0.6014   -0.0019 C.2     1  UNL1        0.1262
      3 O           3.5614    1.4965   -0.0935 O.2     1  UNL1       -0.3409
      4 C           0.3787   -0.1697    0.0112 C.2     1  UNL1       -0.0212
      5 C          -1.0840    0.0295    0.0055 C.ar    1  UNL1        0.2140
      6 C          -1.8528   -0.4303   -1.0599 C.ar    1  UNL1       -0.2106
      7 C          -3.2238   -0.2333   -1.0582 C.ar    1  UNL1       -0.1338
      8 C          -3.8351    0.4036    0.0127 C.ar    1  UNL1       -0.1402
      9 C          -3.0715    0.8497    1.0817 C.ar    1  UNL1       -0.1180
     10 C          -1.6979    0.6689    1.0788 C.ar    1  UNL1       -0.2361
     11 H          -1.3771   -0.9347   -1.8916 H       1  UNL1        0.1598
     12 H          -3.8161   -0.5816   -1.8942 H       1  UNL1        0.1510
     13 H          -4.9075    0.5501    0.0150 H       1  UNL1        0.1517
     14 H          -3.5449    1.3416    1.9213 H       1  UNL1        0.1513
     15 H          -1.0997    1.0196    1.9099 H       1  UNL1        0.1647
     16 BR          0.9003   -1.9919    0.1364 Br      1  UNL1       -0.0116
     17 CL          0.8015    2.4502   -0.2522 Cl      1  UNL1       -0.0624
     18 H           3.0806   -0.4411    0.1362 H       1  UNL1        0.1326
@<TRIPOS>BOND
     1    12     7    1
     2    11     6    1
     3     6     7   ar
     4     6     5   ar
     5     7     8   ar
     6    17     1    1
     7     3     2    2
     8     1     2    1
     9     1     4    2
    10     2    18    1
    11     5     4    1
    12     5    10   ar
    13     4    16    1
    14     8    13    1
    15     8     9   ar
    16    10     9   ar
    17    10    15    1
    18     9    14    1
