@<TRIPOS>MOLECULE
GS-138-3.out
 24 24 0 0 0
SMALL
MULLIKEN_CHARGES
****
Gaussian 16 # wB97XD def2tzvp, opt=(maxcycles=50, maxstep=5), freq=noraman, scrf=(
@<TRIPOS>ATOM
      1 C          -1.0227    1.0915    0.1106 C.2     1  UNL1       -0.0045
      2 C          -2.5179    0.9281   -0.0070 C.2     1  UNL1        0.2009
      3 O          -3.0636    1.1213   -1.0676 O.2     1  UNL1       -0.3665
      4 C          -0.1853    0.0697   -0.0045 C.2     1  UNL1       -0.0390
      5 C           1.2915    0.1364    0.0272 C.ar    1  UNL1        0.1783
      6 C           2.0143   -0.4939    1.0377 C.ar    1  UNL1       -0.2015
      7 C           3.3963   -0.4075    1.0657 C.ar    1  UNL1       -0.1503
      8 C           4.0714    0.3012    0.0804 C.ar    1  UNL1       -0.1361
      9 C           3.3581    0.9244   -0.9323 C.ar    1  UNL1       -0.1238
     10 C           1.9738    0.8417   -0.9601 C.ar    1  UNL1       -0.2445
     11 H           1.4903   -1.0497    1.8056 H       1  UNL1        0.1539
     12 H           3.9485   -0.8942    1.8594 H       1  UNL1        0.1469
     13 H           5.1517    0.3650    0.1023 H       1  UNL1        0.1488
     14 H           3.8784    1.4751   -1.7054 H       1  UNL1        0.1477
     15 H           1.4151    1.3260   -1.7513 H       1  UNL1        0.1577
     16 BR         -0.8790   -1.6994   -0.2825 Br      1  UNL1       -0.0920
     17 C          -0.5927    2.5107    0.3521 C.3     1  UNL1       -0.3354
     18 H          -0.8149    3.1211   -0.5259 H       1  UNL1        0.1542
     19 H          -1.1468    2.9347    1.1925 H       1  UNL1        0.1464
     20 H           0.4710    2.5806    0.5663 H       1  UNL1        0.1535
     21 C          -3.2600    0.6068    1.2554 C.3     1  UNL1       -0.3507
     22 H          -2.8761   -0.3209    1.6833 H       1  UNL1        0.1572
     23 H          -3.0780    1.3961    1.9888 H       1  UNL1        0.1572
     24 H          -4.3267    0.5210    1.0609 H       1  UNL1        0.1415
@<TRIPOS>BOND
     1    15    10    1
     2    14     9    1
     3     3     2    2
     4    10     9   ar
     5    10     5   ar
     6     9     8   ar
     7    18    17    1
     8    16     4    1
     9     2     1    1
    10     2    21    1
    11     4     5    1
    12     4     1    2
    13     5     6   ar
    14     8    13    1
    15     8     7   ar
    16     1    17    1
    17    17    20    1
    18    17    19    1
    19     6     7   ar
    20     6    11    1
    21    24    21    1
    22     7    12    1
    23    21    22    1
    24    21    23    1
