@<TRIPOS>MOLECULE
GS-100-1.out
 28 28 0 0 0
SMALL
MULLIKEN_CHARGES
****
Gaussian 16 # wB97XD def2tzvp, opt=(maxcycles=70, maxstep=1), freq=noraman, scrf=(
@<TRIPOS>ATOM
      1 C           0.9469   -0.1841   -0.2544 C.2     1  UNL1       -0.0587
      2 C           2.3828    0.2047   -0.1475 C.2     1  UNL1        0.3843
      3 O           2.8411    1.3146   -0.2879 O.2     1  UNL1       -0.4357
      4 C          -0.0229    0.6293    0.1868 C.2     1  UNL1        0.0456
      5 C          -1.4549    0.2223    0.0990 C.ar    1  UNL1        0.1467
      6 C          -1.9584   -0.7979    0.9012 C.ar    1  UNL1       -0.2312
      7 C          -3.2988   -1.1486    0.8387 C.ar    1  UNL1       -0.1309
      8 C          -4.1533   -0.4839   -0.0293 C.ar    1  UNL1       -0.1453
      9 C          -3.6604    0.5368   -0.8299 C.ar    1  UNL1       -0.1496
     10 C          -2.3217    0.8926   -0.7603 C.ar    1  UNL1       -0.2184
     11 H          -1.2921   -1.3215    1.5761 H       1  UNL1        0.1483
     12 H          -3.6756   -1.9444    1.4688 H       1  UNL1        0.1440
     13 H          -5.1989   -0.7593   -0.0810 H       1  UNL1        0.1454
     14 H          -4.3201    1.0593   -1.5112 H       1  UNL1        0.1438
     15 H          -1.9436    1.6912   -1.3875 H       1  UNL1        0.1504
     16 C           0.1715    1.9728    0.8309 C.3     1  UNL1       -0.3577
     17 H          -0.4113    2.0166    1.7535 H       1  UNL1        0.1399
     18 H           1.2103    2.1993    1.0456 H       1  UNL1        0.1372
     19 H          -0.2200    2.7558    0.1754 H       1  UNL1        0.1427
     20 C           0.6950   -1.5353   -0.8731 C.3     1  UNL1       -0.3657
     21 H           1.3225   -1.6771   -1.7544 H       1  UNL1        0.1404
     22 H           0.9347   -2.3402   -0.1757 H       1  UNL1        0.1371
     23 H          -0.3450   -1.6426   -1.1715 H       1  UNL1        0.1449
     24 O           3.1504   -0.8603    0.1022 O.3     1  UNL1       -0.2763
     25 C           4.5558   -0.6280    0.1892 C.3     1  UNL1       -0.2020
     26 H           5.0041   -1.5992    0.3774 H       1  UNL1        0.1453
     27 H           4.9327   -0.2123   -0.7447 H       1  UNL1        0.1381
     28 H           4.7809    0.0561    1.0068 H       1  UNL1        0.1373
@<TRIPOS>BOND
     1    21    20    1
     2    14     9    1
     3    15    10    1
     4    23    20    1
     5    20     1    1
     6    20    22    1
     7     9    10   ar
     8     9     8   ar
     9    10     5   ar
    10    27    25    1
    11     3     2    2
    12     1     2    1
    13     1     4    2
    14     2    24    1
    15    13     8    1
    16     8     7   ar
    17     5     4    1
    18     5     6   ar
    19    24    25    1
    20    19    16    1
    21     4    16    1
    22    25    26    1
    23    25    28    1
    24    16    18    1
    25    16    17    1
    26     7     6   ar
    27     7    12    1
    28     6    11    1
