@<TRIPOS>MOLECULE
GS-192-0.out
 28 29 0 0 0
SMALL
MULLIKEN_CHARGES
****
Gaussian 16 # wB97XD def2tzvp, opt=(maxcycles=50, maxstep=10), freq=noraman, geom=
@<TRIPOS>ATOM
      1 C           0.0373    0.4908    0.4473 C.2     1  UNL1       -0.0589
      2 C           1.4401    0.5416    1.0092 C.2     1  UNL1        0.3106
      3 O           1.6191    1.0642    2.0843 O.2     1  UNL1       -0.3578
      4 C          -0.8206   -0.5029    0.6288 C.2     1  UNL1        0.0477
      5 C          -2.2216   -0.5771    0.1678 C.ar    1  UNL1        0.1778
      6 C          -2.5920   -1.5145   -0.7923 C.ar    1  UNL1       -0.2170
      7 C          -3.9055   -1.5778   -1.2274 C.ar    1  UNL1       -0.1429
      8 C          -4.8565   -0.7152   -0.6992 C.ar    1  UNL1       -0.1301
      9 C          -4.4912    0.2129    0.2648 C.ar    1  UNL1       -0.1283
     10 C          -3.1764    0.2841    0.6984 C.ar    1  UNL1       -0.2390
     11 H          -1.8502   -2.1898   -1.2002 H       1  UNL1        0.1564
     12 H          -4.1873   -2.3027   -1.9800 H       1  UNL1        0.1492
     13 H          -5.8831   -0.7687   -1.0381 H       1  UNL1        0.1507
     14 H          -5.2307    0.8835    0.6826 H       1  UNL1        0.1495
     15 H          -2.8880    1.0072    1.4507 H       1  UNL1        0.1633
     16 CL         -0.2532   -1.9064    1.5041 Cl      1  UNL1       -0.0723
     17 BR         -0.4004    2.0336   -0.5492 Br      1  UNL1       -0.0035
     18 C           2.5368   -0.0276    0.1900 C.ar    1  UNL1        0.0247
     19 C           3.8458    0.0691    0.6621 C.ar    1  UNL1       -0.2071
     20 C           4.8888   -0.4572   -0.0762 C.ar    1  UNL1       -0.1249
     21 C           4.6323   -1.0839   -1.2903 C.ar    1  UNL1       -0.1136
     22 C           3.3327   -1.1834   -1.7653 C.ar    1  UNL1       -0.1579
     23 C           2.2855   -0.6561   -1.0278 C.ar    1  UNL1       -0.1644
     24 H           4.0300    0.5592    1.6088 H       1  UNL1        0.1518
     25 H           5.9038   -0.3812    0.2911 H       1  UNL1        0.1524
     26 H           5.4503   -1.4959   -1.8675 H       1  UNL1        0.1546
     27 H           3.1347   -1.6721   -2.7100 H       1  UNL1        0.1516
     28 H           1.2725   -0.7382   -1.4006 H       1  UNL1        0.1776
@<TRIPOS>BOND
     1    27    22    1
     2    12     7    1
     3    26    21    1
     4    22    21   ar
     5    22    23   ar
     6    28    23    1
     7    21    20   ar
     8     7     6   ar
     9     7     8   ar
    10    11     6    1
    11    13     8    1
    12    23    18   ar
    13     6     5   ar
    14     8     9   ar
    15    17     1    1
    16    20    25    1
    17    20    19   ar
    18     5     4    1
    19     5    10   ar
    20    18    19   ar
    21    18     2    1
    22     9    14    1
    23     9    10   ar
    24     1     4    2
    25     1     2    1
    26     4    16    1
    27    19    24    1
    28    10    15    1
    29     2     3    2
