@<TRIPOS>MOLECULE
GS-144-0.out
 31 32 0 0 0
SMALL
MULLIKEN_CHARGES
****
Gaussian 16 # wB97XD def2tzvp, opt=(calcfc, maxcycles=70, maxstep=10), freq=norama
@<TRIPOS>ATOM
      1 C          -0.0015    1.0663   -0.4257 C.2     1  UNL1       -0.0257
      2 C          -1.3894    0.8970   -0.9887 C.2     1  UNL1        0.3237
      3 O          -1.5857    1.1420   -2.1593 O.2     1  UNL1       -0.3790
      4 C           0.8539    0.0571   -0.3348 C.2     1  UNL1       -0.0177
      5 C           2.2572    0.1360    0.1231 C.ar    1  UNL1        0.1591
      6 C           2.6657   -0.5179    1.2835 C.ar    1  UNL1       -0.2083
      7 C           3.9779   -0.4195    1.7149 C.ar    1  UNL1       -0.1541
      8 C           4.8976    0.3250    0.9876 C.ar    1  UNL1       -0.1293
      9 C           4.4985    0.9722   -0.1720 C.ar    1  UNL1       -0.1271
     10 C           3.1838    0.8779   -0.6039 C.ar    1  UNL1       -0.2449
     11 H           1.9506   -1.1015    1.8504 H       1  UNL1        0.1551
     12 H           4.2841   -0.9246    2.6220 H       1  UNL1        0.1467
     13 H           5.9236    0.3981    1.3246 H       1  UNL1        0.1489
     14 H           5.2114    1.5510   -0.7451 H       1  UNL1        0.1474
     15 H           2.8705    1.3812   -1.5099 H       1  UNL1        0.1563
     16 BR          0.2954   -1.7059   -0.8459 Br      1  UNL1       -0.0879
     17 C           0.3098    2.4772   -0.0153 C.3     1  UNL1       -0.3415
     18 H          -0.4639    2.8470    0.6618 H       1  UNL1        0.1521
     19 H           1.2738    2.5510    0.4820 H       1  UNL1        0.1528
     20 H           0.3146    3.1289   -0.8916 H       1  UNL1        0.1552
     21 C          -2.4851    0.5082   -0.0620 C.ar    1  UNL1        0.0284
     22 C          -3.7832    0.3960   -0.5584 C.ar    1  UNL1       -0.2174
     23 C          -4.8200    0.0385    0.2835 C.ar    1  UNL1       -0.1220
     24 C          -4.5684   -0.2070    1.6285 C.ar    1  UNL1       -0.1203
     25 C          -3.2795   -0.0954    2.1295 C.ar    1  UNL1       -0.1557
     26 C          -2.2391    0.2604    1.2865 C.ar    1  UNL1       -0.1767
     27 H          -3.9643    0.5911   -1.6071 H       1  UNL1        0.1486
     28 H          -5.8264   -0.0498   -0.1046 H       1  UNL1        0.1508
     29 H          -5.3810   -0.4865    2.2870 H       1  UNL1        0.1529
     30 H          -3.0844   -0.2870    3.1764 H       1  UNL1        0.1500
     31 H          -1.2327    0.3406    1.6776 H       1  UNL1        0.1796
@<TRIPOS>BOND
     1     3     2    2
     2    27    22    1
     3    15    10    1
     4     2     1    1
     5     2    21    1
     6    20    17    1
     7    16     4    1
     8    14     9    1
     9    10     9   ar
    10    10     5   ar
    11    22    21   ar
    12    22    23   ar
    13     1     4    2
    14     1    17    1
    15     4     5    1
    16     9     8   ar
    17    28    23    1
    18    21    26   ar
    19    17    19    1
    20    17    18    1
    21     5     6   ar
    22    23    24   ar
    23     8    13    1
    24     8     7   ar
    25     6     7   ar
    26     6    11    1
    27    26    31    1
    28    26    25   ar
    29    24    25   ar
    30    24    29    1
    31     7    12    1
    32    25    30    1
