@<TRIPOS>MOLECULE
GS-123-0.out
 30 31 0 0 0
SMALL
MULLIKEN_CHARGES
****
Gaussian 16 # wB97XD def2tzvp, opt=(maxcycles=50, maxstep=10), freq=noraman, geom=
@<TRIPOS>ATOM
      1 C          -0.1869   -1.0234   -0.0014 C.2     1  UNL1       -0.0340
      2 C          -0.0036   -2.5209    0.0689 C.2     1  UNL1        0.2555
      3 O           0.0356   -3.1035    1.1403 O.2     1  UNL1       -0.4429
      4 C           0.8418   -0.1809    0.0317 C.2     1  UNL1        0.0309
      5 C           0.7539    1.2931    0.1062 C.ar    1  UNL1        0.1562
      6 C           0.0550    1.8853    1.1550 C.ar    1  UNL1       -0.2198
      7 C          -0.0617    3.2644    1.2264 C.ar    1  UNL1       -0.1448
      8 C           0.5176    4.0634    0.2515 C.ar    1  UNL1       -0.1295
      9 C           1.2220    3.4781   -0.7919 C.ar    1  UNL1       -0.1475
     10 C           1.3461    2.1004   -0.8614 C.ar    1  UNL1       -0.2211
     11 H          -0.4008    1.2605    1.9123 H       1  UNL1        0.1615
     12 H          -0.6057    3.7148    2.0467 H       1  UNL1        0.1464
     13 H           0.4244    5.1405    0.3061 H       1  UNL1        0.1483
     14 H           1.6764    4.0968   -1.5551 H       1  UNL1        0.1464
     15 H           1.8972    1.6472   -1.6761 H       1  UNL1        0.1537
     16 BR          2.6287   -0.8632    0.0367 Br      1  UNL1       -0.0691
     17 C          -1.6018   -0.5746   -0.0914 C.ar    1  UNL1        0.1696
     18 C          -2.0101    0.2908   -1.1039 C.ar    1  UNL1       -0.2172
     19 C          -3.3320    0.6970   -1.1881 C.ar    1  UNL1       -0.1498
     20 C          -4.2620    0.2412   -0.2643 C.ar    1  UNL1       -0.1278
     21 C          -3.8644   -0.6306    0.7392 C.ar    1  UNL1       -0.1535
     22 C          -2.5433   -1.0418    0.8231 C.ar    1  UNL1       -0.2143
     23 H          -1.2876    0.6455   -1.8277 H       1  UNL1        0.1606
     24 H          -3.6365    1.3694   -1.9800 H       1  UNL1        0.1446
     25 H          -5.2943    0.5605   -0.3295 H       1  UNL1        0.1471
     26 H          -4.5849   -0.9922    1.4617 H       1  UNL1        0.1450
     27 H          -2.2350   -1.7204    1.6085 H       1  UNL1        0.1504
     28 N           0.0496   -3.1389   -1.1194 N.am    1  UNL1       -0.4255
     29 H           0.1503   -4.1392   -1.1566 H       1  UNL1        0.2827
     30 H           0.0364   -2.6213   -1.9798 H       1  UNL1        0.2976
@<TRIPOS>BOND
     1    24    19    1
     2    30    28    1
     3    23    18    1
     4    15    10    1
     5    14     9    1
     6    19    18   ar
     7    19    20   ar
     8    29    28    1
     9    28     2   am
    10    18    17   ar
    11    10     9   ar
    12    10     5   ar
    13     9     8   ar
    14    25    20    1
    15    20    21   ar
    16    17     1    1
    17    17    22   ar
    18     1     4    2
    19     1     2    1
    20     4    16    1
    21     4     5    1
    22     2     3    2
    23     5     6   ar
    24     8    13    1
    25     8     7   ar
    26    21    22   ar
    27    21    26    1
    28    22    27    1
    29     6     7   ar
    30     6    11    1
    31     7    12    1
