@<TRIPOS>MOLECULE
GS-116-0.out
 25 25 0 0 0
SMALL
MULLIKEN_CHARGES
****
Gaussian 16 # wB97XD def2tzvp, opt=(calcfc, maxcycles=70, maxstep=10), freq=norama
@<TRIPOS>ATOM
      1 C           0.9102   -0.0839   -0.0895 C.2     1  UNL1       -0.0249
      2 C           2.3564    0.2729   -0.2008 C.2     1  UNL1        0.3944
      3 O           2.7701    1.2029   -0.8485 O.2     1  UNL1       -0.4135
      4 C          -0.0853    0.8075   -0.0772 C.2     1  UNL1        0.0074
      5 C          -1.5086    0.3786   -0.0141 C.ar    1  UNL1        0.1882
      6 C          -2.2569    0.5985    1.1381 C.ar    1  UNL1       -0.2261
      7 C          -3.5914    0.2245    1.1879 C.ar    1  UNL1       -0.1432
      8 C          -4.1942   -0.3547    0.0807 C.ar    1  UNL1       -0.1445
      9 C          -3.4557   -0.5628   -1.0757 C.ar    1  UNL1       -0.1251
     10 C          -2.1182   -0.2015   -1.1223 C.ar    1  UNL1       -0.2365
     11 H          -1.7914    1.0545    2.0036 H       1  UNL1        0.1559
     12 H          -4.1612    0.3893    2.0935 H       1  UNL1        0.1461
     13 H          -5.2374   -0.6414    0.1181 H       1  UNL1        0.1473
     14 H          -3.9212   -1.0099   -1.9448 H       1  UNL1        0.1464
     15 H          -1.5409   -0.3700   -2.0231 H       1  UNL1        0.1537
     16 C           0.1137    2.2943   -0.1104 C.3     1  UNL1       -0.3362
     17 H          -0.5177    2.7516    0.6535 H       1  UNL1        0.1461
     18 H           1.1445    2.5961    0.0395 H       1  UNL1        0.1412
     19 H          -0.2256    2.6806   -1.0749 H       1  UNL1        0.1501
     20 CL          0.5927   -1.7945    0.0498 Cl      1  UNL1       -0.0940
     21 O           3.1355   -0.5455    0.4922 O.3     1  UNL1       -0.2700
     22 C           4.5412   -0.2885    0.4288 C.3     1  UNL1       -0.1991
     23 H           5.0069   -1.0629    1.0303 H       1  UNL1        0.1502
     24 H           4.8901   -0.3453   -0.6013 H       1  UNL1        0.1433
     25 H           4.7652    0.6961    0.8370 H       1  UNL1        0.1430
@<TRIPOS>BOND
     1    15    10    1
     2    14     9    1
     3    10     9   ar
     4    10     5   ar
     5     9     8   ar
     6    19    16    1
     7     3     2    2
     8    24    22    1
     9     2     1    1
    10     2    21    1
    11    16     4    1
    12    16    18    1
    13    16    17    1
    14     1     4    2
    15     1    20    1
    16     4     5    1
    17     5     6   ar
    18     8    13    1
    19     8     7   ar
    20    22    21    1
    21    22    25    1
    22    22    23    1
    23     6     7   ar
    24     6    11    1
    25     7    12    1
