@<TRIPOS>MOLECULE
GS-148-0.out
 22 22 0 0 0
SMALL
MULLIKEN_CHARGES
****
Gaussian 16 # wB97XD def2tzvp, opt=(maxcycles=50, maxstep=10), freq=noraman, geom=
@<TRIPOS>ATOM
      1 C          -0.7565    0.4729   -0.1397 C.2     1  UNL1       -0.0143
      2 C          -2.2310    0.2212   -0.2699 C.2     1  UNL1        0.3450
      3 O          -2.8062    0.2097   -1.3251 O.2     1  UNL1       -0.3808
      4 C           0.1725   -0.4666   -0.0539 C.2     1  UNL1       -0.0313
      5 C           1.6305   -0.2605    0.0559 C.ar    1  UNL1        0.1728
      6 C           2.1788    0.1710    1.2595 C.ar    1  UNL1       -0.2150
      7 C           3.5467    0.3677    1.3657 C.ar    1  UNL1       -0.1323
      8 C           4.3697    0.1360    0.2732 C.ar    1  UNL1       -0.1300
      9 C           3.8239   -0.2969   -0.9274 C.ar    1  UNL1       -0.1430
     10 C           2.4579   -0.5003   -1.0369 C.ar    1  UNL1       -0.1998
     11 H           1.5322    0.3533    2.1086 H       1  UNL1        0.1600
     12 H           3.9691    0.7033    2.3040 H       1  UNL1        0.1498
     13 H           5.4376    0.2915    0.3572 H       1  UNL1        0.1509
     14 H           4.4633   -0.4772   -1.7817 H       1  UNL1        0.1496
     15 H           2.0302   -0.8408   -1.9717 H       1  UNL1        0.1564
     16 BR         -0.3898   -2.2875   -0.0696 Br      1  UNL1       -0.0329
     17 BR         -0.3216    2.3100   -0.1918 Br      1  UNL1       -0.0034
     18 O          -2.7938    0.0492    0.9120 O.3     1  UNL1       -0.2493
     19 C          -4.2075   -0.1973    0.9149 C.3     1  UNL1       -0.2039
     20 H          -4.4808   -0.3083    1.9591 H       1  UNL1        0.1547
     21 H          -4.7353    0.6435    0.4678 H       1  UNL1        0.1487
     22 H          -4.4280   -1.1093    0.3625 H       1  UNL1        0.1482
@<TRIPOS>BOND
     1    15    10    1
     2    14     9    1
     3     3     2    2
     4    10     9   ar
     5    10     5   ar
     6     9     8   ar
     7     2     1    1
     8     2    18    1
     9    17     1    1
    10     1     4    2
    11    16     4    1
    12     4     5    1
    13     5     6   ar
    14     8    13    1
    15     8     7   ar
    16    22    19    1
    17    21    19    1
    18    18    19    1
    19    19    20    1
    20     6     7   ar
    21     6    11    1
    22     7    12    1
