@<TRIPOS>MOLECULE
GS-1-1.out
 38 40 0 0 0
SMALL
MULLIKEN_CHARGES
****
Gaussian 16 # wB97XD def2tzvp, opt=(maxcycles=70, maxstep=1), freq=noraman, scrf=(
@<TRIPOS>ATOM
      1 C          -0.3083   -1.1814   -0.1363 C.2     1  UNL1        0.0079
      2 C           0.1726   -2.5575   -0.3630 C.2     1  UNL1        0.1223
      3 O          -0.5165   -3.5485   -0.2554 O.2     1  UNL1       -0.3820
      4 C           0.5726   -0.1537   -0.1047 C.2     1  UNL1        0.2918
      5 C           0.1359    1.2650   -0.0997 C.ar    1  UNL1        0.0740
      6 C           0.6740    2.1561    0.8269 C.ar    1  UNL1       -0.2102
      7 C           0.2699    3.4813    0.8462 C.ar    1  UNL1       -0.1599
      8 C          -0.6556    3.9396   -0.0805 C.ar    1  UNL1       -0.1199
      9 C          -1.1764    3.0654   -1.0247 C.ar    1  UNL1       -0.1499
     10 C          -0.7884    1.7359   -1.0306 C.ar    1  UNL1       -0.2308
     11 H           1.4045    1.8045    1.5451 H       1  UNL1        0.1594
     12 H           0.6831    4.1586    1.5827 H       1  UNL1        0.1441
     13 H          -0.9652    4.9769   -0.0718 H       1  UNL1        0.1472
     14 H          -1.8877    3.4200   -1.7596 H       1  UNL1        0.1437
     15 H          -1.1987    1.0571   -1.7667 H       1  UNL1        0.1596
     16 C           2.0407   -0.3596   -0.0438 C.ar    1  UNL1        0.0771
     17 C           2.8759    0.2979   -0.9481 C.ar    1  UNL1       -0.2163
     18 C           4.2472    0.1208   -0.8935 C.ar    1  UNL1       -0.1522
     19 C           4.8075   -0.6926    0.0839 C.ar    1  UNL1       -0.1252
     20 C           3.9887   -1.3290    1.0033 C.ar    1  UNL1       -0.1167
     21 C           2.6127   -1.1648    0.9390 C.ar    1  UNL1       -0.2803
     22 H           2.4431    0.9417   -1.7038 H       1  UNL1        0.1580
     23 H           4.8828    0.6224   -1.6119 H       1  UNL1        0.1461
     24 H           5.8812   -0.8219    0.1317 H       1  UNL1        0.1492
     25 H           4.4191   -1.9526    1.7762 H       1  UNL1        0.1473
     26 H           1.9754   -1.6493    1.6683 H       1  UNL1        0.1632
     27 C          -1.7721   -0.9995    0.0393 C.ar    1  UNL1        0.1028
     28 C          -2.6708   -1.4186   -0.9383 C.ar    1  UNL1       -0.2582
     29 C          -4.0335   -1.2296   -0.7707 C.ar    1  UNL1       -0.1393
     30 C          -4.5181   -0.6312    0.3845 C.ar    1  UNL1       -0.1303
     31 C          -3.6313   -0.2260    1.3715 C.ar    1  UNL1       -0.1608
     32 C          -2.2681   -0.4103    1.1992 C.ar    1  UNL1       -0.2117
     33 H          -2.2995   -1.8830   -1.8434 H       1  UNL1        0.1430
     34 H          -4.7194   -1.5499   -1.5448 H       1  UNL1        0.1422
     35 H          -5.5827   -0.4846    0.5156 H       1  UNL1        0.1447
     36 H          -4.0008    0.2355    2.2786 H       1  UNL1        0.1416
     37 H          -1.5773   -0.0876    1.9686 H       1  UNL1        0.1526
     38 H           1.2229   -2.6484   -0.6810 H       1  UNL1        0.1260
@<TRIPOS>BOND
     1    33    28    1
     2    15    10    1
     3    14     9    1
     4    22    17    1
     5    23    18    1
     6    34    29    1
     7    10     9   ar
     8    10     5   ar
     9     9     8   ar
    10    17    18   ar
    11    17    16   ar
    12    28    29   ar
    13    28    27   ar
    14    18    19   ar
    15    29    30   ar
    16    38     2    1
    17     2     3    2
    18     2     1    1
    19     1     4    2
    20     1    27    1
    21     4     5    1
    22     4    16    1
    23     5     6   ar
    24     8    13    1
    25     8     7   ar
    26    16    21   ar
    27    27    32   ar
    28    19    24    1
    29    19    20   ar
    30    30    35    1
    31    30    31   ar
    32     6     7   ar
    33     6    11    1
    34     7    12    1
    35    21    20   ar
    36    21    26    1
    37    20    25    1
    38    32    31   ar
    39    32    37    1
    40    31    36    1
