@<TRIPOS>MOLECULE
GS-126-1.out
 36 37 0 0 0
SMALL
MULLIKEN_CHARGES
****
Gaussian 16 # wB97XD def2tzvp, opt=(maxcycles=50, maxstep=1), freq=noraman, scrf=(
@<TRIPOS>ATOM
      1 C          -0.6358    0.2136   -0.2323 C.2     1  UNL1       -0.0718
      2 C          -2.1103    0.0631   -0.5221 C.2     1  UNL1        0.2414
      3 O          -2.4800    0.0344   -1.6913 O.2     1  UNL1       -0.4786
      4 C           0.1823   -0.8339   -0.1736 C.2     1  UNL1        0.0534
      5 C           1.6569   -0.7881   -0.0916 C.ar    1  UNL1        0.1509
      6 C           2.3754   -0.1022   -1.0677 C.ar    1  UNL1       -0.2183
      7 C           3.7569   -0.0226   -0.9926 C.ar    1  UNL1       -0.1470
      8 C           4.4329   -0.6269    0.0573 C.ar    1  UNL1       -0.1265
      9 C           3.7221   -1.3190    1.0286 C.ar    1  UNL1       -0.1482
     10 C           2.3420   -1.4056    0.9518 C.ar    1  UNL1       -0.2268
     11 H           1.8461    0.3727   -1.8839 H       1  UNL1        0.1602
     12 H           4.3056    0.5118   -1.7575 H       1  UNL1        0.1460
     13 H           5.5118   -0.5630    0.1169 H       1  UNL1        0.1481
     14 H           4.2445   -1.7930    1.8496 H       1  UNL1        0.1461
     15 H           1.7908   -1.9468    1.7109 H       1  UNL1        0.1536
     16 BR         -0.5520   -2.5998   -0.2253 Br      1  UNL1       -0.0727
     17 C          -0.1719    1.6186   -0.0842 C.ar    1  UNL1        0.1687
     18 C           0.6259    1.9941    0.9952 C.ar    1  UNL1       -0.2339
     19 C           1.0413    3.3076    1.1387 C.ar    1  UNL1       -0.1503
     20 C           0.6623    4.2647    0.2079 C.ar    1  UNL1       -0.1266
     21 C          -0.1427    3.9014   -0.8620 C.ar    1  UNL1       -0.1564
     22 C          -0.5636    2.5884   -1.0050 C.ar    1  UNL1       -0.2202
     23 H           0.9216    1.2526    1.7263 H       1  UNL1        0.1717
     24 H           1.6599    3.5845    1.9828 H       1  UNL1        0.1441
     25 H           0.9885    5.2908    0.3195 H       1  UNL1        0.1467
     26 H          -0.4456    4.6429   -1.5903 H       1  UNL1        0.1443
     27 H          -1.1910    2.3081   -1.8415 H       1  UNL1        0.1496
     28 N          -2.9465    0.0310    0.5282 N.am    1  UNL1       -0.0843
     29 C          -4.3773   -0.0554    0.3150 C.3     1  UNL1       -0.2801
     30 C          -2.5232    0.0323    1.9137 C.3     1  UNL1       -0.2888
     31 H          -4.5901    0.0280   -0.7458 H       1  UNL1        0.1525
     32 H          -4.7567   -1.0099    0.6873 H       1  UNL1        0.1443
     33 H          -4.8777    0.7521    0.8526 H       1  UNL1        0.1415
     34 H          -1.4404    0.0391    1.9894 H       1  UNL1        0.1692
     35 H          -2.9188    0.9120    2.4256 H       1  UNL1        0.1496
     36 H          -2.9000   -0.8616    2.4153 H       1  UNL1        0.1487
@<TRIPOS>BOND
     1    11     6    1
     2    27    22    1
     3    12     7    1
     4     3     2    2
     5    26    21    1
     6     6     7   ar
     7     6     5   ar
     8    22    21   ar
     9    22    17   ar
    10     7     8   ar
    11    21    20   ar
    12    31    29    1
    13     2     1    1
    14     2    28   am
    15     1     4    2
    16     1    17    1
    17    16     4    1
    18     4     5    1
    19     5    10   ar
    20    17    18   ar
    21     8    13    1
    22     8     9   ar
    23    20    25    1
    24    20    19   ar
    25    29    28    1
    26    29    32    1
    27    29    33    1
    28    28    30    1
    29    10     9   ar
    30    10    15    1
    31    18    19   ar
    32    18    23    1
    33     9    14    1
    34    19    24    1
    35    30    34    1
    36    30    36    1
    37    30    35    1
