@<TRIPOS>MOLECULE
GS-107-1.out
 23 23 0 0 0
SMALL
MULLIKEN_CHARGES
****
Gaussian 16 # wB97XD def2tzvp, opt=(maxcycles=50, maxstep=1), freq=noraman, scrf=(
@<TRIPOS>ATOM
      1 C           1.1262    0.2216   -0.0173 C.2     1  UNL1       -0.0379
      2 C           2.5797    0.6173   -0.0623 C.2     1  UNL1        0.2458
      3 O           3.2575    0.4441   -1.0608 O.2     1  UNL1       -0.4440
      4 C           0.1009    1.0669   -0.0051 C.2     1  UNL1       -0.0328
      5 C          -1.3157    0.6141    0.0152 C.ar    1  UNL1        0.1847
      6 C          -1.8802    0.1158    1.1851 C.ar    1  UNL1       -0.2217
      7 C          -3.2098   -0.2770    1.2088 C.ar    1  UNL1       -0.1357
      8 C          -3.9864   -0.1770    0.0632 C.ar    1  UNL1       -0.1388
      9 C          -3.4295    0.3233   -1.1051 C.ar    1  UNL1       -0.1462
     10 C          -2.1020    0.7240   -1.1275 C.ar    1  UNL1       -0.2187
     11 H          -1.2728    0.0336    2.0781 H       1  UNL1        0.1527
     12 H          -3.6392   -0.6631    2.1246 H       1  UNL1        0.1454
     13 H          -5.0236   -0.4868    0.0812 H       1  UNL1        0.1470
     14 H          -4.0298    0.4034   -2.0024 H       1  UNL1        0.1456
     15 H          -1.6708    1.1155   -2.0410 H       1  UNL1        0.1533
     16 C           0.2908    2.5587   -0.0302 C.3     1  UNL1       -0.3341
     17 H          -0.1329    2.9989    0.8752 H       1  UNL1        0.1494
     18 H           1.3334    2.8577   -0.1107 H       1  UNL1        0.1396
     19 H          -0.2575    2.9766   -0.8771 H       1  UNL1        0.1499
     20 BR          0.9071   -1.6654   -0.0833 Br      1  UNL1       -0.0614
     21 N           3.0518    1.1514    1.0744 N.am    1  UNL1       -0.4294
     22 H           4.0117    1.4491    1.1214 H       1  UNL1        0.2858
     23 H           2.4669    1.2671    1.8822 H       1  UNL1        0.3014
@<TRIPOS>BOND
     1    15    10    1
     2    14     9    1
     3    10     9   ar
     4    10     5   ar
     5     9     8   ar
     6     3     2    2
     7    19    16    1
     8    18    16    1
     9    20     1    1
    10     2     1    1
    11     2    21   am
    12    16     4    1
    13    16    17    1
    14     1     4    2
    15     4     5    1
    16     5     6   ar
    17     8    13    1
    18     8     7   ar
    19    21    22    1
    20    21    23    1
    21     6     7   ar
    22     6    11    1
    23     7    12    1
