@<TRIPOS>MOLECULE
GS-195-0.out
 20 20 0 0 0
SMALL
MULLIKEN_CHARGES
****
Gaussian 16 # wB97XD def2tzvp, opt=(maxcycles=50, maxstep=10), freq=noraman, geom=
@<TRIPOS>ATOM
      1 C           1.2174   -0.4150    0.0735 C.2     1  UNL1        0.0046
      2 C           2.6955   -0.1355   -0.0807 C.2     1  UNL1        0.2600
      3 O           3.2650   -0.3903   -1.1256 O.2     1  UNL1       -0.4335
      4 C           0.2478    0.4741   -0.1042 C.2     1  UNL1        0.0114
      5 C          -1.2067    0.2202   -0.0536 C.ar    1  UNL1        0.2014
      6 C          -1.9924    0.8361    0.9168 C.ar    1  UNL1       -0.2162
      7 C          -3.3554    0.5940    0.9619 C.ar    1  UNL1       -0.1366
      8 C          -3.9434   -0.2542    0.0333 C.ar    1  UNL1       -0.1400
      9 C          -3.1645   -0.8612   -0.9407 C.ar    1  UNL1       -0.1206
     10 C          -1.7990   -0.6265   -0.9853 C.ar    1  UNL1       -0.2430
     11 H          -1.5348    1.5017    1.6381 H       1  UNL1        0.1550
     12 H          -3.9599    1.0694    1.7234 H       1  UNL1        0.1494
     13 H          -5.0094   -0.4394    0.0680 H       1  UNL1        0.1505
     14 H          -3.6196   -1.5184   -1.6703 H       1  UNL1        0.1499
     15 H          -1.1898   -1.0978   -1.7459 H       1  UNL1        0.1643
     16 CL          0.7017    2.1234   -0.4508 Cl      1  UNL1       -0.0708
     17 CL          0.8818   -2.0679    0.4607 Cl      1  UNL1       -0.0523
     18 N           3.2903    0.3616    1.0097 N.am    1  UNL1       -0.4265
     19 H           4.2751    0.5670    0.9879 H       1  UNL1        0.2897
     20 H           2.7696    0.5730    1.8421 H       1  UNL1        0.3032
@<TRIPOS>BOND
     1    15    10    1
     2    14     9    1
     3     3     2    2
     4    10     9   ar
     5    10     5   ar
     6     9     8   ar
     7    16     4    1
     8     4     5    1
     9     4     1    2
    10     2     1    1
    11     2    18   am
    12     5     6   ar
    13     8    13    1
    14     8     7   ar
    15     1    17    1
    16     6     7   ar
    17     6    11    1
    18     7    12    1
    19    19    18    1
    20    18    20    1
