@<TRIPOS>MOLECULE
GS-180-0.out
 25 25 0 0 0
SMALL
MULLIKEN_CHARGES
****
Gaussian 16 # wB97XD def2tzvp, opt=(maxcycles=50, maxstep=10), freq=noraman, geom=
@<TRIPOS>ATOM
      1 C          -0.8842    0.6715   -0.3564 C.2     1  UNL1       -0.0172
      2 C          -2.3487    0.3554   -0.4007 C.2     1  UNL1        0.3598
      3 O          -2.9701    0.2346   -1.4262 O.2     1  UNL1       -0.4064
      4 C           0.0085   -0.2677   -0.0609 C.2     1  UNL1        0.0382
      5 C           1.4739   -0.0875    0.0222 C.ar    1  UNL1        0.1657
      6 C           2.0086    0.8541    0.8974 C.ar    1  UNL1       -0.2479
      7 C           3.3811    1.0365    0.9769 C.ar    1  UNL1       -0.1271
      8 C           4.2300    0.2791    0.1844 C.ar    1  UNL1       -0.1318
      9 C           3.7026   -0.6658   -0.6862 C.ar    1  UNL1       -0.1481
     10 C           2.3328   -0.8529   -0.7636 C.ar    1  UNL1       -0.2161
     11 H           1.3458    1.4408    1.5208 H       1  UNL1        0.1644
     12 H           3.7859    1.7693    1.6629 H       1  UNL1        0.1480
     13 H           5.3013    0.4211    0.2462 H       1  UNL1        0.1492
     14 H           4.3612   -1.2593   -1.3072 H       1  UNL1        0.1475
     15 H           1.9252   -1.5935   -1.4405 H       1  UNL1        0.1535
     16 CL         -0.5318   -1.9070    0.2600 Cl      1  UNL1       -0.1049
     17 C          -0.5477    2.0813   -0.7458 C.3     1  UNL1       -0.3572
     18 H          -1.0679    2.3363   -1.6709 H       1  UNL1        0.1506
     19 H          -0.8808    2.7818    0.0235 H       1  UNL1        0.1540
     20 H           0.5206    2.2142   -0.8959 H       1  UNL1        0.1536
     21 O          -2.8820    0.2825    0.8106 O.3     1  UNL1       -0.2619
     22 C          -4.2838   -0.0048    0.8747 C.3     1  UNL1       -0.2032
     23 H          -4.5321   -0.0165    1.9313 H       1  UNL1        0.1508
     24 H          -4.8524    0.7671    0.3582 H       1  UNL1        0.1433
     25 H          -4.4894   -0.9752    0.4249 H       1  UNL1        0.1433
@<TRIPOS>BOND
     1    18    17    1
     2    15    10    1
     3     3     2    2
     4    14     9    1
     5    20    17    1
     6    10     9   ar
     7    10     5   ar
     8    17     1    1
     9    17    19    1
    10     9     8   ar
    11     2     1    1
    12     2    21    1
    13     1     4    2
    14     4     5    1
    15     4    16    1
    16     5     6   ar
    17     8    13    1
    18     8     7   ar
    19    24    22    1
    20    25    22    1
    21    21    22    1
    22    22    23    1
    23     6     7   ar
    24     6    11    1
    25     7    12    1
