@<TRIPOS>MOLECULE
GS-113-0.out
 21 21 0 0 0
SMALL
MULLIKEN_CHARGES
****
Gaussian 16 # wB97XD def2tzvp, opt=(maxcycles=50, maxstep=10), freq=noraman, geom=
@<TRIPOS>ATOM
      1 C          -1.5667    0.2604   -0.0892 C.2     1  UNL1        0.0219
      2 C          -3.0365    0.0879   -0.0719 C.2     1  UNL1        0.1394
      3 O          -3.6251   -0.8723    0.3601 O.2     1  UNL1       -0.3638
      4 C          -0.6358   -0.6930    0.0698 C.2     1  UNL1       -0.0051
      5 C           0.8158   -0.3770    0.0579 C.ar    1  UNL1        0.2076
      6 C           1.3817    0.3817    1.0786 C.ar    1  UNL1       -0.2468
      7 C           2.7435    0.6390    1.0856 C.ar    1  UNL1       -0.1183
      8 C           3.5505    0.1525    0.0668 C.ar    1  UNL1       -0.1479
      9 C           2.9914   -0.6027   -0.9538 C.ar    1  UNL1       -0.1406
     10 C           1.6324   -0.8769   -0.9527 C.ar    1  UNL1       -0.2291
     11 H           0.7528    0.7668    1.8714 H       1  UNL1        0.1583
     12 H           3.1745    1.2232    1.8886 H       1  UNL1        0.1475
     13 H           4.6130    0.3595    0.0698 H       1  UNL1        0.1482
     14 H           3.6148   -0.9843   -1.7523 H       1  UNL1        0.1473
     15 H           1.2023   -1.4718   -1.7494 H       1  UNL1        0.1592
     16 C          -0.9667   -2.1405    0.2746 C.3     1  UNL1       -0.3361
     17 H          -0.2611   -2.7525   -0.2886 H       1  UNL1        0.1458
     18 H          -0.8295   -2.3898    1.3307 H       1  UNL1        0.1563
     19 H          -1.9841   -2.3903   -0.0044 H       1  UNL1        0.1457
     20 CL         -1.1266    1.9224   -0.4207 Cl      1  UNL1       -0.1056
     21 H          -3.5877    0.9481   -0.4902 H       1  UNL1        0.1162
@<TRIPOS>BOND
     1    14     9    1
     2    15    10    1
     3     9    10   ar
     4     9     8   ar
     5    10     5   ar
     6    21     2    1
     7    20     1    1
     8    17    16    1
     9     1     2    1
    10     1     4    2
    11     2     3    2
    12    19    16    1
    13     5     4    1
    14     5     6   ar
    15     8    13    1
    16     8     7   ar
    17     4    16    1
    18    16    18    1
    19     6     7   ar
    20     6    11    1
    21     7    12    1
