@<TRIPOS>MOLECULE
GS-143-1.out
 33 34 0 0 0
SMALL
MULLIKEN_CHARGES
****
Gaussian 16 # wB97XD def2tzvp, opt=(calcfc, maxcycles=70, maxstep=1), freq=noraman
@<TRIPOS>ATOM
      1 C          -0.5153   -1.0363   -0.5318 C.2     1  UNL1       -0.0462
      2 C           0.9395   -0.8182   -0.8609 C.2     1  UNL1        0.3695
      3 O           1.3324   -0.8850   -2.0116 O.2     1  UNL1       -0.4562
      4 C          -1.3320   -0.0329   -0.2296 C.2     1  UNL1       -0.0232
      5 C          -2.7682   -0.1521    0.1027 C.ar    1  UNL1        0.1524
      6 C          -3.1572   -0.8484    1.2436 C.ar    1  UNL1       -0.2330
      7 C          -4.5013   -0.9796    1.5595 C.ar    1  UNL1       -0.1307
      8 C          -5.4664   -0.4163    0.7385 C.ar    1  UNL1       -0.1298
      9 C          -5.0838    0.2821   -0.3992 C.ar    1  UNL1       -0.1523
     10 C          -3.7420    0.4187   -0.7136 C.ar    1  UNL1       -0.2062
     11 H          -2.4019   -1.2870    1.8838 H       1  UNL1        0.1586
     12 H          -4.7928   -1.5219    2.4497 H       1  UNL1        0.1476
     13 H          -6.5156   -0.5187    0.9846 H       1  UNL1        0.1491
     14 H          -5.8335    0.7218   -1.0443 H       1  UNL1        0.1471
     15 H          -3.4461    0.9671   -1.5994 H       1  UNL1        0.1549
     16 BR         -0.6811    1.7712   -0.2058 Br      1  UNL1       -0.0820
     17 C          -0.9560   -2.4659   -0.6640 C.3     1  UNL1       -0.3590
     18 H          -0.6270   -2.8556   -1.6290 H       1  UNL1        0.1516
     19 H          -0.4953   -3.0800    0.1132 H       1  UNL1        0.1507
     20 H          -2.0359   -2.5671   -0.5921 H       1  UNL1        0.1509
     21 N           1.7232   -0.6117    0.2249 N.am    1  UNL1       -0.2643
     22 C           3.1049   -0.3586    0.2931 C.ar    1  UNL1        0.3113
     23 C           3.6347   -0.0788    1.5531 C.ar    1  UNL1       -0.3019
     24 C           4.9854    0.1771    1.7022 C.ar    1  UNL1       -0.0980
     25 C           5.8282    0.1596    0.5989 C.ar    1  UNL1       -0.1834
     26 C           5.2993   -0.1179   -0.6513 C.ar    1  UNL1       -0.1115
     27 C           3.9458   -0.3781   -0.8170 C.ar    1  UNL1       -0.2909
     28 H           1.2357   -0.5776    1.1060 H       1  UNL1        0.2774
     29 H           2.9826   -0.0617    2.4185 H       1  UNL1        0.1465
     30 H           5.3797    0.3923    2.6871 H       1  UNL1        0.1473
     31 H           6.8852    0.3603    0.7147 H       1  UNL1        0.1444
     32 H           5.9452   -0.1349   -1.5202 H       1  UNL1        0.1455
     33 H           3.5435   -0.5931   -1.7934 H       1  UNL1        0.1637
@<TRIPOS>BOND
     1     3     2    2
     2    33    27    1
     3    18    17    1
     4    15    10    1
     5    32    26    1
     6    14     9    1
     7     2     1    1
     8     2    21   am
     9    27    26   ar
    10    27    22   ar
    11    10     9   ar
    12    10     5   ar
    13    17    20    1
    14    17     1    1
    15    17    19    1
    16    26    25   ar
    17     1     4    2
    18     9     8   ar
    19     4    16    1
    20     4     5    1
    21     5     6   ar
    22    21    22    1
    23    21    28    1
    24    22    23   ar
    25    25    31    1
    26    25    24   ar
    27     8    13    1
    28     8     7   ar
    29     6     7   ar
    30     6    11    1
    31    23    24   ar
    32    23    29    1
    33     7    12    1
    34    24    30    1
