@<TRIPOS>MOLECULE
GS-128-1.out
 38 40 0 0 0
SMALL
MULLIKEN_CHARGES
****
Gaussian 16 # wB97XD def2tzvp, opt=(maxcycles=50, maxstep=1), freq=noraman, scrf=(
@<TRIPOS>ATOM
      1 C          -0.1012    0.2057   -0.5595 C.2     1  UNL1        0.0274
      2 C          -1.5053    0.0448   -1.0922 C.2     1  UNL1        0.2728
      3 O          -1.6892    0.0021   -2.2888 O.2     1  UNL1       -0.3729
      4 C           0.6956   -0.8340   -0.3327 C.2     1  UNL1        0.0451
      5 C           2.1181   -0.7735    0.0621 C.ar    1  UNL1        0.1420
      6 C           2.5697   -1.3913    1.2255 C.ar    1  UNL1       -0.2339
      7 C           3.8998   -1.2895    1.5979 C.ar    1  UNL1       -0.1467
      8 C           4.7940   -0.5823    0.8055 C.ar    1  UNL1       -0.1247
      9 C           4.3522    0.0224   -0.3622 C.ar    1  UNL1       -0.1486
     10 C           3.0203   -0.0718   -0.7332 C.ar    1  UNL1       -0.2142
     11 H           1.8751   -1.9444    1.8455 H       1  UNL1        0.1547
     12 H           4.2393   -1.7636    2.5099 H       1  UNL1        0.1465
     13 H           5.8340   -0.5068    1.0962 H       1  UNL1        0.1485
     14 H           5.0459    0.5686   -0.9884 H       1  UNL1        0.1462
     15 H           2.6729    0.4037   -1.6415 H       1  UNL1        0.1604
     16 BR          0.0045   -2.6058   -0.5450 Br      1  UNL1       -0.0699
     17 C           0.3003    1.6163   -0.3142 C.ar    1  UNL1        0.1464
     18 C           0.1135    2.5794   -1.3032 C.ar    1  UNL1       -0.2217
     19 C           0.4776    3.8977   -1.0749 C.ar    1  UNL1       -0.1540
     20 C           1.0183    4.2705    0.1467 C.ar    1  UNL1       -0.1255
     21 C           1.1912    3.3188    1.1425 C.ar    1  UNL1       -0.1460
     22 C           0.8329    2.0009    0.9150 C.ar    1  UNL1       -0.2455
     23 H          -0.3057    2.2933   -2.2595 H       1  UNL1        0.1527
     24 H           0.3376    4.6348   -1.8551 H       1  UNL1        0.1454
     25 H           1.2997    5.3005    0.3250 H       1  UNL1        0.1475
     26 H           1.6038    3.6040    2.1017 H       1  UNL1        0.1450
     27 H           0.9674    1.2626    1.6952 H       1  UNL1        0.1738
     28 C          -2.6204    0.0155   -0.1112 C.ar    1  UNL1        0.0528
     29 C          -2.3777   -0.0183    1.2600 C.ar    1  UNL1       -0.1538
     30 C          -3.4362   -0.0513    2.1531 C.ar    1  UNL1       -0.1667
     31 C          -4.7403   -0.0482    1.6801 C.ar    1  UNL1       -0.1141
     32 C          -4.9889   -0.0145    0.3127 C.ar    1  UNL1       -0.1247
     33 C          -3.9337    0.0160   -0.5799 C.ar    1  UNL1       -0.2214
     34 H          -1.3612   -0.0264    1.6316 H       1  UNL1        0.1754
     35 H          -3.2434   -0.0799    3.2174 H       1  UNL1        0.1489
     36 H          -5.5675   -0.0724    2.3781 H       1  UNL1        0.1530
     37 H          -6.0074   -0.0118   -0.0532 H       1  UNL1        0.1509
     38 H          -4.1121    0.0423   -1.6467 H       1  UNL1        0.1489
@<TRIPOS>BOND
     1     3     2    2
     2    23    18    1
     3    24    19    1
     4    38    33    1
     5    15    10    1
     6    18    19   ar
     7    18    17   ar
     8     2     1    1
     9     2    28    1
    10    19    20   ar
    11    14     9    1
    12    10     9   ar
    13    10     5   ar
    14    33    28   ar
    15    33    32   ar
    16     1     4    2
    17     1    17    1
    18    16     4    1
    19     9     8   ar
    20     4     5    1
    21    17    22   ar
    22    28    29   ar
    23    37    32    1
    24     5     6   ar
    25    20    25    1
    26    20    21   ar
    27    32    31   ar
    28     8    13    1
    29     8     7   ar
    30    22    21   ar
    31    22    27    1
    32    21    26    1
    33     6     7   ar
    34     6    11    1
    35    29    34    1
    36    29    30   ar
    37     7    12    1
    38    31    30   ar
    39    31    36    1
    40    30    35    1
