@<TRIPOS>MOLECULE
GS-118-0.out
 29 29 0 0 0
SMALL
MULLIKEN_CHARGES
****
Gaussian 16 # wB97XD def2tzvp, opt=(maxcycles=50, maxstep=10), freq=noraman, geom=
@<TRIPOS>ATOM
      1 C          -0.6950    0.4472    0.0571 C.2     1  UNL1       -0.0067
      2 C          -2.1624    0.4545    0.4034 C.2     1  UNL1        0.2352
      3 O          -2.5651    1.2438    1.2502 O.2     1  UNL1       -0.4774
      4 C           0.2037   -0.3867    0.5662 C.2     1  UNL1       -0.0203
      5 C           1.6577   -0.2789    0.2799 C.ar    1  UNL1        0.1704
      6 C           2.2926   -1.2595   -0.4772 C.ar    1  UNL1       -0.2308
      7 C           3.6536   -1.1791   -0.7309 C.ar    1  UNL1       -0.1493
      8 C           4.3963   -0.1248   -0.2188 C.ar    1  UNL1       -0.1400
      9 C           3.7712    0.8501    0.5459 C.ar    1  UNL1       -0.1291
     10 C           2.4089    0.7742    0.7930 C.ar    1  UNL1       -0.2482
     11 H           1.7170   -2.0853   -0.8784 H       1  UNL1        0.1547
     12 H           4.1345   -1.9428   -1.3290 H       1  UNL1        0.1448
     13 H           5.4595   -0.0641   -0.4136 H       1  UNL1        0.1465
     14 H           4.3455    1.6732    0.9518 H       1  UNL1        0.1452
     15 H           1.9216    1.5363    1.3886 H       1  UNL1        0.1521
     16 C          -0.2044   -1.5151    1.4710 C.3     1  UNL1       -0.3333
     17 H           0.1032   -2.4685    1.0354 H       1  UNL1        0.1481
     18 H           0.3049   -1.4205    2.4321 H       1  UNL1        0.1514
     19 H          -1.2780   -1.5491    1.6482 H       1  UNL1        0.1420
     20 CL         -0.2808    1.7391   -1.0389 Cl      1  UNL1       -0.0933
     21 N          -2.9551   -0.4120   -0.2503 N.am    1  UNL1       -0.1066
     22 C          -4.3701   -0.4737    0.0605 C.3     1  UNL1       -0.2761
     23 C          -2.5082   -1.3290   -1.2807 C.3     1  UNL1       -0.2939
     24 H          -4.5864    0.1846    0.8954 H       1  UNL1        0.1519
     25 H          -4.9591   -0.1666   -0.8064 H       1  UNL1        0.1466
     26 H          -4.6431   -1.4978    0.3223 H       1  UNL1        0.1418
     27 H          -1.4697   -1.1481   -1.5388 H       1  UNL1        0.1731
     28 H          -2.6125   -2.3610   -0.9382 H       1  UNL1        0.1509
     29 H          -3.1201   -1.1962   -2.1747 H       1  UNL1        0.1503
@<TRIPOS>BOND
     1    29    23    1
     2    27    23    1
     3    12     7    1
     4    23    28    1
     5    23    21    1
     6    20     1    1
     7    11     6    1
     8    25    22    1
     9     7     6   ar
    10     7     8   ar
    11     6     5   ar
    12    13     8    1
    13    21    22    1
    14    21     2   am
    15     8     9   ar
    16     1     2    1
    17     1     4    2
    18    22    26    1
    19    22    24    1
    20     5     4    1
    21     5    10   ar
    22     2     3    2
    23     9    10   ar
    24     9    14    1
    25     4    16    1
    26    10    15    1
    27    17    16    1
    28    16    19    1
    29    16    18    1
