@<TRIPOS>MOLECULE
GS-161-0.out
 28 29 0 0 0
SMALL
MULLIKEN_CHARGES
****
Gaussian 16 # wB97XD def2tzvp, opt=(maxcycles=50, maxstep=10), freq=noraman, geom=
@<TRIPOS>ATOM
      1 C           0.6928    1.2407    0.0103 C.2     1  UNL1        0.0028
      2 C           1.4677    2.4999    0.0354 C.2     1  UNL1        0.1402
      3 O           2.6703    2.5453   -0.0780 O.2     1  UNL1       -0.3654
      4 C          -0.6506    1.2382    0.0542 C.2     1  UNL1        0.0799
      5 C          -1.5009    0.0313    0.1235 C.ar    1  UNL1        0.1623
      6 C          -2.5276   -0.1683   -0.7960 C.ar    1  UNL1       -0.2193
      7 C          -3.2996   -1.3166   -0.7386 C.ar    1  UNL1       -0.1454
      8 C          -3.0685   -2.2631    0.2498 C.ar    1  UNL1       -0.1263
      9 C          -2.0602   -2.0583    1.1807 C.ar    1  UNL1       -0.1427
     10 C          -1.2752   -0.9192    1.1165 C.ar    1  UNL1       -0.2141
     11 H          -2.7138    0.5702   -1.5653 H       1  UNL1        0.1558
     12 H          -4.0852   -1.4711   -1.4667 H       1  UNL1        0.1486
     13 H          -3.6770   -3.1570    0.2970 H       1  UNL1        0.1501
     14 H          -1.8828   -2.7877    1.9604 H       1  UNL1        0.1482
     15 H          -0.4857   -0.7633    1.8395 H       1  UNL1        0.1667
     16 CL         -1.5664    2.7236    0.0312 Cl      1  UNL1       -0.0675
     17 C           1.4599   -0.0283   -0.0998 C.ar    1  UNL1        0.1684
     18 C           1.2974   -0.8540   -1.2079 C.ar    1  UNL1       -0.2177
     19 C           2.0056   -2.0414   -1.3095 C.ar    1  UNL1       -0.1518
     20 C           2.8865   -2.4139   -0.3046 C.ar    1  UNL1       -0.1347
     21 C           3.0615   -1.5893    0.7983 C.ar    1  UNL1       -0.1321
     22 C           2.3566   -0.4003    0.8975 C.ar    1  UNL1       -0.2518
     23 H           0.6063   -0.5670   -1.9908 H       1  UNL1        0.1543
     24 H           1.8680   -2.6765   -2.1753 H       1  UNL1        0.1440
     25 H           3.4374   -3.3426   -0.3812 H       1  UNL1        0.1463
     26 H           3.7484   -1.8733    1.5854 H       1  UNL1        0.1446
     27 H           2.4927    0.2377    1.7617 H       1  UNL1        0.1460
     28 H           0.8857    3.4230    0.1691 H       1  UNL1        0.1107
@<TRIPOS>BOND
     1    24    19    1
     2    23    18    1
     3    11     6    1
     4    12     7    1
     5    19    18   ar
     6    19    20   ar
     7    18    17   ar
     8     6     7   ar
     9     6     5   ar
    10     7     8   ar
    11    25    20    1
    12    20    21   ar
    13    17     1    1
    14    17    22   ar
    15     3     2    2
    16     1     2    1
    17     1     4    2
    18    16     4    1
    19     2    28    1
    20     4     5    1
    21     5    10   ar
    22     8    13    1
    23     8     9   ar
    24    21    22   ar
    25    21    26    1
    26    22    27    1
    27    10     9   ar
    28    10    15    1
    29     9    14    1
