@<TRIPOS>MOLECULE
GS-186-0.out
 21 21 0 0 0
SMALL
MULLIKEN_CHARGES
****
Gaussian 16 # wB97XD def2tzvp, opt=(maxcycles=50, maxstep=10), freq=noraman, geom=
@<TRIPOS>ATOM
      1 C           1.0926    0.0125   -0.0684 C.2     1  UNL1       -0.0238
      2 C           2.5350    0.4582   -0.1823 C.2     1  UNL1        0.1777
      3 O           3.0553    0.5220   -1.2668 O.2     1  UNL1       -0.3419
      4 C           0.0402    0.8161   -0.1185 C.2     1  UNL1        0.0290
      5 C          -1.3862    0.4368   -0.0591 C.ar    1  UNL1        0.1989
      6 C          -2.1674    0.8171    1.0284 C.ar    1  UNL1       -0.2125
      7 C          -3.5034    0.4550    1.0818 C.ar    1  UNL1       -0.1373
      8 C          -4.0685   -0.2776    0.0467 C.ar    1  UNL1       -0.1378
      9 C          -3.2942   -0.6489   -1.0427 C.ar    1  UNL1       -0.1226
     10 C          -1.9553   -0.2937   -1.0972 C.ar    1  UNL1       -0.2357
     11 H          -1.7269    1.3919    1.8335 H       1  UNL1        0.1550
     12 H          -4.1046    0.7459    1.9334 H       1  UNL1        0.1495
     13 H          -5.1134   -0.5570    0.0890 H       1  UNL1        0.1506
     14 H          -3.7323   -1.2155   -1.8540 H       1  UNL1        0.1499
     15 H          -1.3486   -0.5813   -1.9465 H       1  UNL1        0.1640
     16 CL          0.3436    2.5329   -0.2706 Cl      1  UNL1       -0.0758
     17 BR          0.9274   -1.8526    0.1777 Br      1  UNL1       -0.0084
     18 C           3.2295    0.7713    1.1055 C.3     1  UNL1       -0.3497
     19 H           2.7106    1.5956    1.5997 H       1  UNL1        0.1604
     20 H           3.1712   -0.0904    1.7737 H       1  UNL1        0.1637
     21 H           4.2680    1.0364    0.9228 H       1  UNL1        0.1467
@<TRIPOS>BOND
     1    15    10    1
     2    14     9    1
     3     3     2    2
     4    10     9   ar
     5    10     5   ar
     6     9     8   ar
     7    16     4    1
     8     2     1    1
     9     2    18    1
    10     4     1    2
    11     4     5    1
    12     1    17    1
    13     5     6   ar
    14     8    13    1
    15     8     7   ar
    16    21    18    1
    17     6     7   ar
    18     6    11    1
    19     7    12    1
    20    18    19    1
    21    18    20    1
