@<TRIPOS>MOLECULE
GS-146-0.out
 21 21 0 0 0
SMALL
MULLIKEN_CHARGES
****
Gaussian 16 # wB97XD def2tzvp, opt=(calcfc, maxcycles=70, maxstep=10), freq=norama
@<TRIPOS>ATOM
      1 C           1.0160   -0.4108   -0.0463 C.2     1  UNL1        0.0006
      2 C           2.4985   -0.1127   -0.1299 C.2     1  UNL1        0.1770
      3 O           3.0312   -0.0409   -1.2077 O.2     1  UNL1       -0.3401
      4 C           0.0390    0.4811   -0.0465 C.2     1  UNL1       -0.0454
      5 C          -1.4129    0.2139   -0.0083 C.ar    1  UNL1        0.1959
      6 C          -2.1321    0.4104    1.1667 C.ar    1  UNL1       -0.1991
      7 C          -3.4927    0.1507    1.1967 C.ar    1  UNL1       -0.1413
      8 C          -4.1418   -0.2970    0.0542 C.ar    1  UNL1       -0.1336
      9 C          -3.4273   -0.4868   -1.1197 C.ar    1  UNL1       -0.1280
     10 C          -2.0651   -0.2324   -1.1533 C.ar    1  UNL1       -0.2172
     11 H          -1.6242    0.7620    2.0562 H       1  UNL1        0.1553
     12 H          -4.0471    0.2982    2.1144 H       1  UNL1        0.1493
     13 H          -5.2053   -0.4971    0.0792 H       1  UNL1        0.1506
     14 H          -3.9304   -0.8342   -2.0128 H       1  UNL1        0.1497
     15 H          -1.5030   -0.3812   -2.0667 H       1  UNL1        0.1581
     16 BR          0.5175    2.3286   -0.1114 Br      1  UNL1       -0.0424
     17 BR          0.6650   -2.2665    0.0666 Br      1  UNL1       -0.0124
     18 C           3.2118    0.0440    1.1761 C.3     1  UNL1       -0.3508
     19 H           2.7741    0.8797    1.7266 H       1  UNL1        0.1622
     20 H           3.0652   -0.8516    1.7834 H       1  UNL1        0.1642
     21 H           4.2722    0.2169    1.0107 H       1  UNL1        0.1474
@<TRIPOS>BOND
     1    15    10    1
     2    14     9    1
     3     3     2    2
     4    10     9   ar
     5    10     5   ar
     6     9     8   ar
     7     2     1    1
     8     2    18    1
     9    16     4    1
    10     4     1    2
    11     4     5    1
    12     1    17    1
    13     5     6   ar
    14     8    13    1
    15     8     7   ar
    16    21    18    1
    17     6     7   ar
    18     6    11    1
    19    18    19    1
    20    18    20    1
    21     7    12    1
