@<TRIPOS>MOLECULE
GS-199-0.out
 30 31 0 0 0
SMALL
MULLIKEN_CHARGES
****
Gaussian 16 # wB97XD def2tzvp, opt=(maxcycles=50, maxstep=10), freq=noraman, geom=
@<TRIPOS>ATOM
      1 C          -0.5402   -0.7383    0.0399 C.2     1  UNL1       -0.0268
      2 C           0.9155   -0.8605   -0.3476 C.2     1  UNL1        0.3642
      3 O           1.2591   -1.6606   -1.1942 O.2     1  UNL1       -0.4363
      4 C          -1.3711    0.2015   -0.3961 C.2     1  UNL1        0.0213
      5 C          -2.8177    0.3027   -0.1137 C.ar    1  UNL1        0.1712
      6 C          -3.3158    1.3863    0.6044 C.ar    1  UNL1       -0.2133
      7 C          -4.6724    1.4775    0.8688 C.ar    1  UNL1       -0.1426
      8 C          -5.5392    0.4953    0.4092 C.ar    1  UNL1       -0.1336
      9 C          -5.0462   -0.5801   -0.3150 C.ar    1  UNL1       -0.1250
     10 C          -3.6884   -0.6788   -0.5763 C.ar    1  UNL1       -0.2416
     11 H          -2.6401    2.1548    0.9587 H       1  UNL1        0.1553
     12 H          -5.0535    2.3178    1.4345 H       1  UNL1        0.1494
     13 H          -6.5994    0.5702    0.6139 H       1  UNL1        0.1507
     14 H          -5.7194   -1.3448   -0.6802 H       1  UNL1        0.1499
     15 H          -3.3019   -1.5164   -1.1426 H       1  UNL1        0.1643
     16 CL         -0.7274    1.4541   -1.4266 Cl      1  UNL1       -0.0670
     17 CL         -1.0679   -2.0097    1.0880 Cl      1  UNL1       -0.0501
     18 N           1.7267   -0.0393    0.3536 N.am    1  UNL1       -0.2620
     19 C           3.1231    0.1196    0.2630 C.ar    1  UNL1        0.3096
     20 C           3.7002    1.0929    1.0782 C.ar    1  UNL1       -0.2968
     21 C           5.0659    1.3069    1.0481 C.ar    1  UNL1       -0.0980
     22 C           5.8745    0.5552    0.2061 C.ar    1  UNL1       -0.1807
     23 C           5.2976   -0.4111   -0.6019 C.ar    1  UNL1       -0.1118
     24 C           3.9282   -0.6383   -0.5828 C.ar    1  UNL1       -0.2879
     25 H           1.2663    0.5652    1.0157 H       1  UNL1        0.2824
     26 H           3.0750    1.6833    1.7376 H       1  UNL1        0.1484
     27 H           5.4989    2.0660    1.6868 H       1  UNL1        0.1486
     28 H           6.9433    0.7225    0.1820 H       1  UNL1        0.1456
     29 H           5.9170   -1.0046   -1.2624 H       1  UNL1        0.1469
     30 H           3.4893   -1.3926   -1.2150 H       1  UNL1        0.1658
@<TRIPOS>BOND
     1    16     4    1
     2    29    23    1
     3    30    24    1
     4     3     2    2
     5    15    10    1
     6    14     9    1
     7    23    24   ar
     8    23    22   ar
     9    24    19   ar
    10    10     9   ar
    11    10     5   ar
    12     4     5    1
    13     4     1    2
    14     2     1    1
    15     2    18   am
    16     9     8   ar
    17     5     6   ar
    18     1    17    1
    19    28    22    1
    20    22    21   ar
    21    19    18    1
    22    19    20   ar
    23    18    25    1
    24     8    13    1
    25     8     7   ar
    26     6     7   ar
    27     6    11    1
    28     7    12    1
    29    21    20   ar
    30    21    27    1
    31    20    26    1
