@<TRIPOS>MOLECULE
GS-197-0.out
 23 23 0 0 0
SMALL
MULLIKEN_CHARGES
****
Gaussian 16 # wB97XD def2tzvp, opt=(calcfc, maxcycles=70, maxstep=10), freq=norama
@<TRIPOS>ATOM
      1 C          -0.8641    0.5132   -0.0166 C.2     1  UNL1       -0.0024
      2 C          -2.3426    0.3193   -0.2546 C.2     1  UNL1        0.3069
      3 O          -2.8570    0.6909   -1.2971 O.2     1  UNL1       -0.4597
      4 C           0.0687   -0.4165   -0.1852 C.2     1  UNL1        0.0138
      5 C           1.5294   -0.2393   -0.0504 C.ar    1  UNL1        0.1828
      6 C           2.2265   -0.9081    0.9519 C.ar    1  UNL1       -0.2134
      7 C           3.5957   -0.7390    1.0755 C.ar    1  UNL1       -0.1401
      8 C           4.2777    0.0889    0.1941 C.ar    1  UNL1       -0.1367
      9 C           3.5866    0.7493   -0.8112 C.ar    1  UNL1       -0.1230
     10 C           2.2154    0.5875   -0.9344 C.ar    1  UNL1       -0.2408
     11 H           1.6949   -1.5573    1.6366 H       1  UNL1        0.1546
     12 H           4.1315   -1.2553    1.8614 H       1  UNL1        0.1492
     13 H           5.3482    0.2172    0.2902 H       1  UNL1        0.1504
     14 H           4.1152    1.3914   -1.5037 H       1  UNL1        0.1497
     15 H           1.6741    1.1009   -1.7188 H       1  UNL1        0.1631
     16 CL         -0.4429   -2.0249   -0.6316 Cl      1  UNL1       -0.0721
     17 CL         -0.4590    2.1298    0.4526 Cl      1  UNL1       -0.0566
     18 N          -3.0083   -0.2430    0.7572 N.am    1  UNL1       -0.2975
     19 C          -4.4316   -0.5003    0.6892 C.3     1  UNL1       -0.2541
     20 H          -2.4946   -0.5360    1.5699 H       1  UNL1        0.2880
     21 H          -4.7574   -0.8987    1.6461 H       1  UNL1        0.1525
     22 H          -4.9757    0.4212    0.4818 H       1  UNL1        0.1426
     23 H          -4.6592   -1.2233   -0.0955 H       1  UNL1        0.1428
@<TRIPOS>BOND
     1    15    10    1
     2    14     9    1
     3     3     2    2
     4    10     9   ar
     5    10     5   ar
     6     9     8   ar
     7    16     4    1
     8     2     1    1
     9     2    18   am
    10     4     5    1
    11     4     1    2
    12    23    19    1
    13     5     6   ar
    14     1    17    1
    15     8    13    1
    16     8     7   ar
    17    22    19    1
    18    19    18    1
    19    19    21    1
    20    18    20    1
    21     6     7   ar
    22     6    11    1
    23     7    12    1
