@<TRIPOS>MOLECULE
GS-136-0.out
 28 29 0 0 0
SMALL
MULLIKEN_CHARGES
****
Gaussian 16 # wB97XD def2tzvp, opt=(maxcycles=50, maxstep=10), freq=noraman, geom=
@<TRIPOS>ATOM
      1 C           0.2278   -0.1779    0.4806 C.2     1  UNL1       -0.3047
      2 C           1.5178    0.5448    0.6177 C.2     1  UNL1        0.3145
      3 O           1.5844    1.6635    1.0851 O.2     1  UNL1       -0.3863
      4 C          -0.9666    0.3179    0.1594 C.2     1  UNL1        0.0456
      5 C          -2.1905   -0.5103    0.1230 C.ar    1  UNL1        0.2077
      6 C          -2.4144   -1.4345    1.1435 C.ar    1  UNL1       -0.2511
      7 C          -3.5326   -2.2521    1.1165 C.ar    1  UNL1       -0.1276
      8 C          -4.4384   -2.1590    0.0704 C.ar    1  UNL1       -0.1409
      9 C          -4.2244   -1.2382   -0.9460 C.ar    1  UNL1       -0.1362
     10 C          -3.1130   -0.4128   -0.9172 C.ar    1  UNL1       -0.2317
     11 H          -1.7187   -1.4999    1.9703 H       1  UNL1        0.1695
     12 H          -3.6987   -2.9583    1.9197 H       1  UNL1        0.1498
     13 H          -5.3122   -2.7973    0.0497 H       1  UNL1        0.1501
     14 H          -4.9269   -1.1607   -1.7657 H       1  UNL1        0.1489
     15 H          -2.9555    0.3037   -1.7127 H       1  UNL1        0.1570
     16 BR         -1.2075    2.1386   -0.3242 Br      1  UNL1       -0.0409
     17 H           0.2687   -1.2476    0.6494 H       1  UNL1        0.2111
     18 C           2.7477   -0.1847    0.1898 C.ar    1  UNL1        0.1174
     19 C           3.9864    0.2626    0.6467 C.ar    1  UNL1       -0.1986
     20 C           5.1480   -0.3762    0.2521 C.ar    1  UNL1       -0.1252
     21 C           5.0835   -1.4601   -0.6153 C.ar    1  UNL1       -0.1287
     22 C           3.8557   -1.9047   -1.0830 C.ar    1  UNL1       -0.1463
     23 C           2.6901   -1.2740   -0.6768 C.ar    1  UNL1       -0.2251
     24 H           4.0242    1.1112    1.3170 H       1  UNL1        0.1496
     25 H           6.1061   -0.0308    0.6182 H       1  UNL1        0.1500
     26 H           5.9930   -1.9579   -0.9270 H       1  UNL1        0.1521
     27 H           3.8047   -2.7438   -1.7644 H       1  UNL1        0.1505
     28 H           1.7378   -1.6235   -1.0547 H       1  UNL1        0.1694
@<TRIPOS>BOND
     1    14     9    1
     2    27    22    1
     3    15    10    1
     4    22    23   ar
     5    22    21   ar
     6    28    23    1
     7     9    10   ar
     8     9     8   ar
     9    26    21    1
    10    10     5   ar
    11    23    18   ar
    12    21    20   ar
    13    16     4    1
    14    13     8    1
    15     8     7   ar
    16     5     4    1
    17     5     6   ar
    18     4     1    2
    19    18     2    1
    20    18    19   ar
    21    20    25    1
    22    20    19   ar
    23     1     2    1
    24     1    17    1
    25     2     3    2
    26    19    24    1
    27     7     6   ar
    28     7    12    1
    29     6    11    1
