@<TRIPOS>MOLECULE
GS-156-0.out
 22 22 0 0 0
SMALL
MULLIKEN_CHARGES
****
Gaussian 16 # wB97XD def2tzvp, opt=(maxcycles=50, maxstep=10), freq=noraman, geom=
@<TRIPOS>ATOM
      1 C           0.7709   -0.8105   -0.0711 C.2     1  UNL1        0.0584
      2 C           2.2494   -0.6105   -0.2588 C.2     1  UNL1        0.3475
      3 O           2.7835   -0.6350   -1.3349 O.2     1  UNL1       -0.3795
      4 C          -0.1368    0.1551   -0.0786 C.2     1  UNL1       -0.0465
      5 C          -1.5993   -0.0152    0.0239 C.ar    1  UNL1        0.1671
      6 C          -2.2855    0.4399    1.1465 C.ar    1  UNL1       -0.2063
      7 C          -3.6571    0.2690    1.2362 C.ar    1  UNL1       -0.1429
      8 C          -4.3519   -0.3462    0.2036 C.ar    1  UNL1       -0.1331
      9 C          -3.6714   -0.7926   -0.9197 C.ar    1  UNL1       -0.1259
     10 C          -2.2980   -0.6293   -1.0112 C.ar    1  UNL1       -0.2321
     11 H          -1.7439    0.9241    1.9495 H       1  UNL1        0.1574
     12 H          -4.1847    0.6178    2.1144 H       1  UNL1        0.1495
     13 H          -5.4242   -0.4752    0.2743 H       1  UNL1        0.1508
     14 H          -4.2097   -1.2689   -1.7288 H       1  UNL1        0.1500
     15 H          -1.7643   -0.9764   -1.8868 H       1  UNL1        0.1627
     16 BR          0.4741    1.9493   -0.2503 Br      1  UNL1       -0.0315
     17 CL          0.3449   -2.4753    0.1326 Cl      1  UNL1       -0.0450
     18 O           2.8610   -0.4454    0.8989 O.3     1  UNL1       -0.2492
     19 C           4.2845   -0.2685    0.8489 C.3     1  UNL1       -0.2034
     20 H           4.5996   -0.1559    1.8811 H       1  UNL1        0.1548
     21 H           4.7543   -1.1406    0.3974 H       1  UNL1        0.1488
     22 H           4.5293    0.6235    0.2745 H       1  UNL1        0.1485
@<TRIPOS>BOND
     1    15    10    1
     2    14     9    1
     3     3     2    2
     4    10     9   ar
     5    10     5   ar
     6     9     8   ar
     7     2     1    1
     8     2    18    1
     9    16     4    1
    10     4     1    2
    11     4     5    1
    12     1    17    1
    13     5     6   ar
    14     8    13    1
    15     8     7   ar
    16    22    19    1
    17    21    19    1
    18    19    18    1
    19    19    20    1
    20     6     7   ar
    21     6    11    1
    22     7    12    1
