@<TRIPOS>MOLECULE
GS-109-0.out
 26 26 0 0 0
SMALL
MULLIKEN_CHARGES
****
Gaussian 16 # wB97XD def2tzvp, opt=(calcfc, maxcycles=70, maxstep=10), freq=norama
@<TRIPOS>ATOM
      1 C          -0.8414   -0.0097   -0.1516 C.2     1  UNL1       -0.0436
      2 C          -2.3217   -0.2322   -0.3087 C.2     1  UNL1        0.2877
      3 O          -2.9223    0.1189   -1.3139 O.2     1  UNL1       -0.4689
      4 C           0.0841   -0.9631   -0.1749 C.2     1  UNL1       -0.0337
      5 C           1.5370   -0.6782   -0.0321 C.ar    1  UNL1        0.1741
      6 C           2.0829   -0.4148    1.2201 C.ar    1  UNL1       -0.2176
      7 C           3.4429   -0.1801    1.3554 C.ar    1  UNL1       -0.1400
      8 C           4.2686   -0.2052    0.2404 C.ar    1  UNL1       -0.1358
      9 C           3.7295   -0.4717   -1.0102 C.ar    1  UNL1       -0.1476
     10 C           2.3707   -0.7139   -1.1454 C.ar    1  UNL1       -0.2191
     11 H           1.4374   -0.3906    2.0896 H       1  UNL1        0.1510
     12 H           3.8578    0.0242    2.3343 H       1  UNL1        0.1452
     13 H           5.3297   -0.0190    0.3459 H       1  UNL1        0.1469
     14 H           4.3682   -0.4921   -1.8841 H       1  UNL1        0.1454
     15 H           1.9525   -0.9226   -2.1229 H       1  UNL1        0.1525
     16 C          -0.2622   -2.4143   -0.3661 C.3     1  UNL1       -0.3382
     17 H           0.0474   -2.9856    0.5120 H       1  UNL1        0.1496
     18 H          -1.3229   -2.5833   -0.5380 H       1  UNL1        0.1410
     19 H           0.2963   -2.8079   -1.2180 H       1  UNL1        0.1498
     20 BR         -0.4103    1.8365   -0.0045 Br      1  UNL1       -0.0665
     21 N          -2.9131   -0.8268    0.7353 N.am    1  UNL1       -0.2982
     22 C          -4.3262   -1.1382    0.7433 C.3     1  UNL1       -0.2526
     23 H          -2.3493   -1.0760    1.5287 H       1  UNL1        0.2864
     24 H          -4.5777   -1.5838    1.7020 H       1  UNL1        0.1508
     25 H          -4.9198   -0.2342    0.6031 H       1  UNL1        0.1403
     26 H          -4.5736   -1.8420   -0.0527 H       1  UNL1        0.1411
@<TRIPOS>BOND
     1    15    10    1
     2    14     9    1
     3     3     2    2
     4    19    16    1
     5    10     9   ar
     6    10     5   ar
     7     9     8   ar
     8    18    16    1
     9    16     4    1
    10    16    17    1
    11     2     1    1
    12     2    21   am
    13     4     1    2
    14     4     5    1
    15     1    20    1
    16    26    22    1
    17     5     6   ar
    18     8    13    1
    19     8     7   ar
    20    25    22    1
    21    21    22    1
    22    21    23    1
    23    22    24    1
    24     6     7   ar
    25     6    11    1
    26     7    12    1
