@<TRIPOS>MOLECULE
GS-198-0.out
 26 26 0 0 0
SMALL
MULLIKEN_CHARGES
****
Gaussian 16 # wB97XD def2tzvp, opt=(maxcycles=50, maxstep=10), freq=noraman, geom=
@<TRIPOS>ATOM
      1 C           0.6843   -0.5478   -0.1171 C.2     1  UNL1       -0.0358
      2 C           2.1425   -0.3983   -0.4821 C.2     1  UNL1        0.2642
      3 O           2.5038   -0.7958   -1.5817 O.2     1  UNL1       -0.4705
      4 C          -0.2528    0.3684   -0.3262 C.2     1  UNL1        0.0288
      5 C          -1.7065    0.2208   -0.1140 C.ar    1  UNL1        0.1927
      6 C          -2.3625    1.0151    0.8227 C.ar    1  UNL1       -0.2223
      7 C          -3.7254    0.8704    1.0226 C.ar    1  UNL1       -0.1393
      8 C          -4.4433   -0.0588    0.2820 C.ar    1  UNL1       -0.1354
      9 C          -3.7944   -0.8444   -0.6591 C.ar    1  UNL1       -0.1228
     10 C          -2.4293   -0.7071   -0.8575 C.ar    1  UNL1       -0.2488
     11 H          -1.8036    1.7437    1.3968 H       1  UNL1        0.1556
     12 H          -4.2282    1.4852    1.7579 H       1  UNL1        0.1488
     13 H          -5.5090   -0.1679    0.4370 H       1  UNL1        0.1503
     14 H          -4.3513   -1.5655   -1.2433 H       1  UNL1        0.1494
     15 H          -1.9216   -1.3177   -1.5932 H       1  UNL1        0.1634
     16 CL          0.2638    1.9337   -0.9020 Cl      1  UNL1       -0.0757
     17 CL          0.3026   -2.1113    0.5221 Cl      1  UNL1       -0.0545
     18 N           2.9546    0.1353    0.4413 N.am    1  UNL1       -0.0988
     19 C           4.3662    0.2996    0.1519 C.3     1  UNL1       -0.2753
     20 C           2.5265    0.6162    1.7402 C.3     1  UNL1       -0.2916
     21 H           4.5833   -0.1053   -0.8309 H       1  UNL1        0.1532
     22 H           4.6286    1.3593    0.1755 H       1  UNL1        0.1448
     23 H           4.9599   -0.2248    0.9027 H       1  UNL1        0.1457
     24 H           1.4685    0.4296    1.8963 H       1  UNL1        0.1735
     25 H           3.0914    0.1080    2.5235 H       1  UNL1        0.1503
     26 H           2.7086    1.6900    1.8180 H       1  UNL1        0.1500
@<TRIPOS>BOND
     1    15    10    1
     2     3     2    2
     3    14     9    1
     4    16     4    1
     5    10     9   ar
     6    10     5   ar
     7    21    19    1
     8     9     8   ar
     9     2     1    1
    10     2    18   am
    11     4     1    2
    12     4     5    1
    13     1    17    1
    14     5     6   ar
    15    19    22    1
    16    19    18    1
    17    19    23    1
    18     8    13    1
    19     8     7   ar
    20    18    20    1
    21     6     7   ar
    22     6    11    1
    23     7    12    1
    24    20    26    1
    25    20    24    1
    26    20    25    1
