@<TRIPOS>MOLECULE
GS-108-0.out
 25 25 0 0 0
SMALL
MULLIKEN_CHARGES
****
Gaussian 16 # wB97XD def2tzvp, opt=(maxcycles=50, maxstep=10), freq=noraman, geom=
@<TRIPOS>ATOM
      1 C           0.8271    0.2153   -0.1089 C.2     1  UNL1       -0.0697
      2 C           2.2610    0.6189   -0.2231 C.2     1  UNL1        0.3888
      3 O           2.6523    1.4938   -0.9553 O.2     1  UNL1       -0.4075
      4 C          -0.1881    1.0789   -0.0565 C.2     1  UNL1        0.0026
      5 C          -1.6045    0.6278    0.0074 C.ar    1  UNL1        0.1993
      6 C          -2.3080    0.6916    1.2057 C.ar    1  UNL1       -0.2173
      7 C          -3.6361    0.2958    1.2578 C.ar    1  UNL1       -0.1446
      8 C          -4.2754   -0.1511    0.1102 C.ar    1  UNL1       -0.1402
      9 C          -3.5809   -0.2028   -1.0901 C.ar    1  UNL1       -0.1313
     10 C          -2.2502    0.1833   -1.1418 C.ar    1  UNL1       -0.2271
     11 H          -1.8117    1.0424    2.1026 H       1  UNL1        0.1537
     12 H          -4.1725    0.3388    2.1971 H       1  UNL1        0.1460
     13 H          -5.3132   -0.4563    0.1507 H       1  UNL1        0.1474
     14 H          -4.0752   -0.5465   -1.9898 H       1  UNL1        0.1462
     15 H          -1.7060    0.1369   -2.0772 H       1  UNL1        0.1525
     16 C          -0.0153    2.5704   -0.0388 C.3     1  UNL1       -0.3429
     17 H          -0.6027    2.9830    0.7838 H       1  UNL1        0.1483
     18 H           1.0181    2.8859    0.0599 H       1  UNL1        0.1400
     19 H          -0.4230    2.9897   -0.9620 H       1  UNL1        0.1509
     20 BR          0.5428   -1.6656   -0.0368 Br      1  UNL1       -0.0637
     21 O           3.0522   -0.0885    0.5705 O.3     1  UNL1       -0.2685
     22 C           4.4494    0.2137    0.5096 C.3     1  UNL1       -0.2010
     23 H           4.9261   -0.4689    1.2061 H       1  UNL1        0.1505
     24 H           4.8268    0.0533   -0.4993 H       1  UNL1        0.1439
     25 H           4.6268    1.2463    0.8070 H       1  UNL1        0.1436
@<TRIPOS>BOND
     1    15    10    1
     2    14     9    1
     3    10     9   ar
     4    10     5   ar
     5     9     8   ar
     6    19    16    1
     7     3     2    2
     8    24    22    1
     9     2     1    1
    10     2    21    1
    11     1     4    2
    12     1    20    1
    13     4    16    1
    14     4     5    1
    15    16    18    1
    16    16    17    1
    17     5     6   ar
    18     8    13    1
    19     8     7   ar
    20    22    21    1
    21    22    25    1
    22    22    23    1
    23     6     7   ar
    24     6    11    1
    25     7    12    1
