@<TRIPOS>MOLECULE
GS-184-0.out
 31 32 0 0 0
SMALL
MULLIKEN_CHARGES
****
Gaussian 16 # wB97XD def2tzvp, opt=(maxcycles=50, maxstep=10), freq=noraman, geom=
@<TRIPOS>ATOM
      1 C          -0.0376    0.9151   -0.3991 C.2     1  UNL1       -0.0341
      2 C           1.3518    1.2836    0.0538 C.2     1  UNL1        0.3129
      3 O           1.5523    2.3900    0.5061 O.2     1  UNL1       -0.3806
      4 C          -0.8830    0.2816    0.4044 C.2     1  UNL1        0.0400
      5 C          -2.2913   -0.0601    0.1124 C.ar    1  UNL1        0.1647
      6 C          -2.7264   -1.3830    0.1596 C.ar    1  UNL1       -0.2214
      7 C          -4.0429   -1.6961   -0.1344 C.ar    1  UNL1       -0.1512
      8 C          -4.9413   -0.6912   -0.4690 C.ar    1  UNL1       -0.1302
      9 C          -4.5169    0.6282   -0.5079 C.ar    1  UNL1       -0.1259
     10 C          -3.1978    0.9435   -0.2174 C.ar    1  UNL1       -0.2597
     11 H          -2.0290   -2.1685    0.4233 H       1  UNL1        0.1535
     12 H          -4.3691   -2.7278   -0.1031 H       1  UNL1        0.1468
     13 H          -5.9708   -0.9375   -0.6954 H       1  UNL1        0.1489
     14 H          -5.2137    1.4170   -0.7610 H       1  UNL1        0.1474
     15 H          -2.8674    1.9742   -0.2415 H       1  UNL1        0.1617
     16 CL         -0.3333   -0.2277    1.9960 Cl      1  UNL1       -0.1117
     17 C          -0.3527    1.3519   -1.8001 C.3     1  UNL1       -0.3455
     18 H           0.4389    1.0238   -2.4781 H       1  UNL1        0.1516
     19 H          -1.2994    0.9463   -2.1485 H       1  UNL1        0.1544
     20 H          -0.3965    2.4418   -1.8547 H       1  UNL1        0.1567
     21 C           2.4450    0.2947   -0.1416 C.ar    1  UNL1        0.0279
     22 C           3.7474    0.6465    0.2109 C.ar    1  UNL1       -0.2154
     23 C           4.7815   -0.2545    0.0367 C.ar    1  UNL1       -0.1230
     24 C           4.5229   -1.5136   -0.4930 C.ar    1  UNL1       -0.1188
     25 C           3.2298   -1.8698   -0.8473 C.ar    1  UNL1       -0.1574
     26 C           2.1923   -0.9684   -0.6718 C.ar    1  UNL1       -0.1710
     27 H           3.9339    1.6302    0.6210 H       1  UNL1        0.1486
     28 H           5.7912    0.0205    0.3123 H       1  UNL1        0.1507
     29 H           5.3333   -2.2183   -0.6294 H       1  UNL1        0.1529
     30 H           3.0293   -2.8501   -1.2593 H       1  UNL1        0.1500
     31 H           1.1828   -1.2499   -0.9437 H       1  UNL1        0.1774
@<TRIPOS>BOND
     1    18    17    1
     2    19    17    1
     3    20    17    1
     4    17     1    1
     5    30    25    1
     6    31    26    1
     7    25    26   ar
     8    25    24   ar
     9    14     9    1
    10    13     8    1
    11    26    21   ar
    12    29    24    1
    13     9     8   ar
    14     9    10   ar
    15    24    23   ar
    16     8     7   ar
    17     1     2    1
    18     1     4    2
    19    15    10    1
    20    10     5   ar
    21    21     2    1
    22    21    22   ar
    23     7    12    1
    24     7     6   ar
    25    23    22   ar
    26    23    28    1
    27     2     3    2
    28     5     6   ar
    29     5     4    1
    30     6    11    1
    31    22    27    1
    32     4    16    1
