@<TRIPOS>MOLECULE
GS-243-0.out
 20 20 0 0 0
SMALL
MULLIKEN_CHARGES
****
Gaussian 16 # wb97xd def2tzvp opt=(calcfc, maxcycles=100, maxstep=10) freq=noraman
@<TRIPOS>ATOM
      1 C           1.0788    0.6328    0.2105 C.2     1  UNL1        0.0298
      2 C           2.1390   -0.3774   -0.1585 C.2     1  UNL1        0.2917
      3 O           3.3101   -0.2341    0.1636 O.2     1  UNL1       -0.4780
      4 C           1.4834    1.8412    0.5866 C.2     1  UNL1       -0.2850
      5 H           0.7741    2.6127    0.8578 H       1  UNL1        0.1668
      6 H           2.5384    2.0766    0.6322 H       1  UNL1        0.1621
      7 C          -0.3610    0.2802    0.1156 C.ar    1  UNL1        0.1373
      8 C          -1.2379    1.0852   -0.6092 C.ar    1  UNL1       -0.2534
      9 C          -2.5894    0.7809   -0.6719 C.ar    1  UNL1       -0.1309
     10 C          -3.0836   -0.3350   -0.0126 C.ar    1  UNL1       -0.1502
     11 C          -2.2189   -1.1457    0.7096 C.ar    1  UNL1       -0.1104
     12 C          -0.8681   -0.8423    0.7712 C.ar    1  UNL1       -0.2714
     13 H          -0.8530    1.9509   -1.1337 H       1  UNL1        0.1568
     14 H          -3.2563    1.4151   -1.2420 H       1  UNL1        0.1459
     15 H          -4.1381   -0.5742   -0.0630 H       1  UNL1        0.1477
     16 H          -2.5976   -2.0158    1.2307 H       1  UNL1        0.1475
     17 H          -0.2014   -1.4772    1.3423 H       1  UNL1        0.1549
     18 N           1.7207   -1.4266   -0.8895 N.am    1  UNL1       -0.4336
     19 H           2.3915   -2.1148   -1.1833 H       1  UNL1        0.2780
     20 H           0.7631   -1.5331   -1.1712 H       1  UNL1        0.2944
@<TRIPOS>BOND
     1    14     9    1
     2    19    18    1
     3    20    18    1
     4    13     8    1
     5    18     2   am
     6     9     8   ar
     7     9    10   ar
     8     8     7   ar
     9     2     3    2
    10     2     1    1
    11    15    10    1
    12    10    11   ar
    13     7     1    1
    14     7    12   ar
    15     1     4    2
    16     4     6    1
    17     4     5    1
    18    11    12   ar
    19    11    16    1
    20    12    17    1
