@<TRIPOS>MOLECULE
GS-238-1.out
 26 26 0 0 0
SMALL
MULLIKEN_CHARGES
****
Gaussian 16 # wB97XD def2tzvp, opt=(calcfc, maxcycles=70, maxstep=1), freq=noraman
@<TRIPOS>ATOM
      1 C          -1.2911   -0.8649   -0.1391 C.2     1  UNL1        0.0917
      2 C          -1.5030    0.6054   -0.3939 C.2     1  UNL1        0.2120
      3 O          -2.0094    0.9489   -1.4563 O.2     1  UNL1       -0.4693
      4 C          -0.1289   -1.5049   -0.0930 C.2     1  UNL1       -0.2740
      5 H          -0.1470   -2.5766    0.0721 H       1  UNL1        0.1668
      6 C           1.2002   -0.8808   -0.1845 C.ar    1  UNL1        0.2036
      7 C           1.4702    0.2099   -1.0117 C.ar    1  UNL1       -0.1990
      8 C           2.7308    0.7849   -1.0269 C.ar    1  UNL1       -0.1474
      9 C           3.7428    0.2749   -0.2260 C.ar    1  UNL1       -0.1417
     10 C           3.4916   -0.8255    0.5816 C.ar    1  UNL1       -0.1347
     11 C           2.2327   -1.4027    0.5960 C.ar    1  UNL1       -0.2210
     12 H           0.6995    0.6009   -1.6634 H       1  UNL1        0.1606
     13 H           2.9253    1.6297   -1.6752 H       1  UNL1        0.1469
     14 H           4.7268    0.7258   -0.2404 H       1  UNL1        0.1479
     15 H           4.2786   -1.2367    1.2008 H       1  UNL1        0.1467
     16 H           2.0399   -2.2612    1.2282 H       1  UNL1        0.1442
     17 CL         -2.7873   -1.7430   -0.0027 Cl      1  UNL1       -0.0968
     18 N          -1.1143    1.4620    0.5643 N.am    1  UNL1       -0.0727
     19 C          -0.5529    1.0807    1.8463 C.3     1  UNL1       -0.3146
     20 C          -1.1520    2.8888    0.3077 C.3     1  UNL1       -0.2770
     21 H          -0.7842    0.0469    2.0817 H       1  UNL1        0.1704
     22 H           0.5322    1.2130    1.8466 H       1  UNL1        0.1561
     23 H          -0.9832    1.7172    2.6198 H       1  UNL1        0.1563
     24 H          -1.4935    3.0662   -0.7067 H       1  UNL1        0.1527
     25 H          -1.8280    3.3800    1.0101 H       1  UNL1        0.1499
     26 H          -0.1509    3.3069    0.4345 H       1  UNL1        0.1424
@<TRIPOS>BOND
     1    13     8    1
     2    12     7    1
     3     3     2    2
     4     8     7   ar
     5     8     9   ar
     6     7     6   ar
     7    24    20    1
     8     2     1    1
     9     2    18   am
    10    14     9    1
    11     9    10   ar
    12     6     4    1
    13     6    11   ar
    14     1     4    2
    15     1    17    1
    16     4     5    1
    17    20    26    1
    18    20    18    1
    19    20    25    1
    20    18    19    1
    21    10    11   ar
    22    10    15    1
    23    11    16    1
    24    19    22    1
    25    19    21    1
    26    19    23    1
