@<TRIPOS>MOLECULE
GS-266-0.out
 11 10 0 0 0
SMALL
MULLIKEN_CHARGES
****
Gaussian 16 # wB97XD def2tzvp, opt=(calcfc, maxcycles=50, maxstep=10), freq=norama
@<TRIPOS>ATOM
      1 C          -0.3165    0.6699    0.0000 C.2     1  UNL1       -0.0422
      2 C          -1.5602   -0.1865   -0.0000 C.2     1  UNL1        0.2833
      3 O          -2.6374    0.3635   -0.0000 O.2     1  UNL1       -0.3811
      4 C          -0.3892    1.9915    0.0000 C.2     1  UNL1       -0.2463
      5 H           0.4879    2.6227    0.0000 H       1  UNL1        0.1828
      6 H          -1.3659    2.4582    0.0000 H       1  UNL1        0.1768
      7 BR          1.3806   -0.1891   -0.0000 Br      1  UNL1       -0.0688
      8 C          -1.4303   -1.6790    0.0000 C.3     1  UNL1       -0.3719
      9 H          -0.8723   -2.0115    0.8772 H       1  UNL1        0.1617
     10 H          -2.4218   -2.1237    0.0000 H       1  UNL1        0.1440
     11 H          -0.8723   -2.0115   -0.8771 H       1  UNL1        0.1617
@<TRIPOS>BOND
     1    11     8    1
     2     3     2    2
     3     2     1    1
     4     2     8    1
     5     7     1    1
     6     1     4    2
     7     4     6    1
     8     4     5    1
     9     8    10    1
    10     8     9    1
