@<TRIPOS>MOLECULE
GS-237-0.out
 23 23 0 0 0
SMALL
MULLIKEN_CHARGES
****
Gaussian 16 # wB97XD def2tzvp, opt=(calcfc, maxcycles=50, maxstep=10), freq=norama
@<TRIPOS>ATOM
      1 C           1.3610   -0.7458    0.0421 C.2     1  UNL1        0.1006
      2 C           1.5554    0.7444    0.1472 C.2     1  UNL1        0.2567
      3 O           2.1373    1.2464    1.0974 O.2     1  UNL1       -0.4591
      4 C           0.2019   -1.3945    0.0079 C.2     1  UNL1       -0.2352
      5 H           0.2337   -2.4735   -0.0985 H       1  UNL1        0.1693
      6 C          -1.1399   -0.7936    0.0888 C.ar    1  UNL1        0.1600
      7 C          -2.1749   -1.3706   -0.6477 C.ar    1  UNL1       -0.2206
      8 C          -3.4518   -0.8344   -0.6128 C.ar    1  UNL1       -0.1367
      9 C          -3.7179    0.2780    0.1731 C.ar    1  UNL1       -0.1413
     10 C          -2.7015    0.8442    0.9299 C.ar    1  UNL1       -0.1434
     11 C          -1.4233    0.3116    0.8922 C.ar    1  UNL1       -0.2008
     12 H          -1.9722   -2.2419   -1.2590 H       1  UNL1        0.1450
     13 H          -4.2415   -1.2888   -1.1974 H       1  UNL1        0.1470
     14 H          -4.7163    0.6949    0.2053 H       1  UNL1        0.1483
     15 H          -2.9062    1.6997    1.5607 H       1  UNL1        0.1473
     16 H          -0.6470    0.7473    1.5086 H       1  UNL1        0.1625
     17 CL          2.8633   -1.6213    0.0047 Cl      1  UNL1       -0.0958
     18 N           1.0551    1.4456   -0.8763 N.am    1  UNL1       -0.2737
     19 C           1.0526    2.8922   -0.8830 C.3     1  UNL1       -0.2503
     20 H           0.5654    0.9525   -1.6023 H       1  UNL1        0.2846
     21 H           0.4025    3.2848   -0.0981 H       1  UNL1        0.1407
     22 H           2.0604    3.2736   -0.7223 H       1  UNL1        0.1425
     23 H           0.6917    3.2350   -1.8489 H       1  UNL1        0.1523
@<TRIPOS>BOND
     1    23    19    1
     2    20    18    1
     3    12     7    1
     4    13     8    1
     5    19    18    1
     6    19    22    1
     7    19    21    1
     8    18     2   am
     9     7     8   ar
    10     7     6   ar
    11     8     9   ar
    12     5     4    1
    13    17     1    1
    14     4     1    2
    15     4     6    1
    16     1     2    1
    17     6    11   ar
    18     2     3    2
    19     9    14    1
    20     9    10   ar
    21    11    10   ar
    22    11    16    1
    23    10    15    1
