@<TRIPOS>MOLECULE
GS-231-0.out
 30 31 0 0 0
SMALL
MULLIKEN_CHARGES
****
Gaussian 16 # wB97XD def2tzvp, opt=(calcfc, maxcycles=50, maxstep=10), freq=norama
@<TRIPOS>ATOM
      1 C          -1.7853   -0.2265    0.0163 C.2     1  UNL1        0.0036
      2 C          -0.5422   -1.0094    0.3462 C.2     1  UNL1        0.3358
      3 O          -0.5030   -1.7755    1.2893 O.2     1  UNL1       -0.4379
      4 C          -1.8784    1.0961   -0.0845 C.2     1  UNL1       -0.2026
      5 H          -2.8389    1.5191   -0.3582 H       1  UNL1        0.1770
      6 C          -0.7868    2.0645    0.1236 C.ar    1  UNL1        0.1306
      7 C          -0.7160    3.1796   -0.7114 C.ar    1  UNL1       -0.2110
      8 C           0.3089    4.1011   -0.5713 C.ar    1  UNL1       -0.1387
      9 C           1.2675    3.9302    0.4173 C.ar    1  UNL1       -0.1343
     10 C           1.1900    2.8387    1.2710 C.ar    1  UNL1       -0.1485
     11 C           0.1688    1.9139    1.1289 C.ar    1  UNL1       -0.1936
     12 H          -1.4644    3.3169   -1.4825 H       1  UNL1        0.1464
     13 H           0.3570    4.9558   -1.2336 H       1  UNL1        0.1477
     14 H           2.0665    4.6517    0.5300 H       1  UNL1        0.1492
     15 H           1.9235    2.7095    2.0564 H       1  UNL1        0.1485
     16 H           0.1058    1.0789    1.8154 H       1  UNL1        0.1623
     17 BR         -3.3180   -1.3177   -0.2112 Br      1  UNL1       -0.0566
     18 N           0.4812   -0.7647   -0.5077 N.am    1  UNL1       -0.2498
     19 C           1.8322   -1.1343   -0.3638 C.ar    1  UNL1        0.3245
     20 C           2.7807   -0.3384   -1.0035 C.ar    1  UNL1       -0.2997
     21 C           4.1254   -0.6511   -0.9138 C.ar    1  UNL1       -0.0947
     22 C           4.5395   -1.7556   -0.1816 C.ar    1  UNL1       -0.1808
     23 C           3.5926   -2.5451    0.4520 C.ar    1  UNL1       -0.0936
     24 C           2.2400   -2.2475    0.3647 C.ar    1  UNL1       -0.3126
     25 H           0.2968   -0.0801   -1.2234 H       1  UNL1        0.2793
     26 H           2.4609    0.5305   -1.5667 H       1  UNL1        0.1519
     27 H           4.8521   -0.0244   -1.4146 H       1  UNL1        0.1476
     28 H           5.5914   -1.9985   -0.1081 H       1  UNL1        0.1453
     29 H           3.9039   -3.4119    1.0212 H       1  UNL1        0.1467
     30 H           1.5088   -2.8694    0.8556 H       1  UNL1        0.1580
@<TRIPOS>BOND
     1    26    20    1
     2    12     7    1
     3    27    21    1
     4    13     8    1
     5    25    18    1
     6    20    21   ar
     7    20    19   ar
     8    21    22   ar
     9     7     8   ar
    10     7     6   ar
    11     8     9   ar
    12    18    19    1
    13    18     2   am
    14    19    24   ar
    15     5     4    1
    16    17     1    1
    17    22    28    1
    18    22    23   ar
    19     4     1    2
    20     4     6    1
    21     1     2    1
    22     6    11   ar
    23     2     3    2
    24    24    23   ar
    25    24    30    1
    26     9    14    1
    27     9    10   ar
    28    23    29    1
    29    11    10   ar
    30    11    16    1
    31    10    15    1
