@<TRIPOS>MOLECULE
GS-276-0.out
 12 11 0 0 0
SMALL
MULLIKEN_CHARGES
****
Gaussian 16 # wB97XD def2tzvp, opt=(calcfc, maxcycles=50, maxstep=10), freq=norama
@<TRIPOS>ATOM
      1 C          -0.8987    0.4359   -0.0000 C.2     1  UNL1       -0.0299
      2 C           0.5990    0.4970    0.0000 C.2     1  UNL1        0.4476
      3 O           1.2017    1.5410    0.0000 O.2     1  UNL1       -0.4151
      4 C          -1.6191    1.5452   -0.0000 C.2     1  UNL1       -0.2546
      5 H          -2.6994    1.5239   -0.0000 H       1  UNL1        0.1815
      6 H          -1.1132    2.5008   -0.0000 H       1  UNL1        0.1773
      7 CL         -1.6516   -1.1280    0.0000 Cl      1  UNL1       -0.0843
      8 O           1.1684   -0.6950   -0.0000 O.3     1  UNL1       -0.2669
      9 C           2.5998   -0.7143   -0.0000 C.3     1  UNL1       -0.1984
     10 H           2.8773   -1.7636   -0.0000 H       1  UNL1        0.1524
     11 H           2.9831   -0.2183   -0.8904 H       1  UNL1        0.1453
     12 H           2.9831   -0.2183    0.8904 H       1  UNL1        0.1453
@<TRIPOS>BOND
     1    11     9    1
     2    10     9    1
     3     5     4    1
     4     6     4    1
     5     4     1    2
     6     8     9    1
     7     8     2    1
     8     9    12    1
     9     1     2    1
    10     1     7    1
    11     2     3    2
