@<TRIPOS>MOLECULE
GS-249-0.out
 8 7 0 0 0
SMALL
MULLIKEN_CHARGES
****
Gaussian 16 # wB97XD def2tzvp, opt=(calcfc, maxcycles=50, maxstep=10), freq=norama
@<TRIPOS>ATOM
      1 C           0.5610   -0.4518   -0.0000 C.2     1  UNL1       -0.1348
      2 C          -0.6691    0.3471   -0.0000 C.2     1  UNL1        0.1828
      3 O          -1.7849   -0.1199    0.0000 O.2     1  UNL1       -0.3808
      4 C           1.7482    0.1446    0.0000 C.2     1  UNL1       -0.2574
      5 H           2.6720   -0.4192    0.0000 H       1  UNL1        0.1701
      6 H           1.8293    1.2265    0.0000 H       1  UNL1        0.1670
      7 H           0.4532   -1.5306    0.0000 H       1  UNL1        0.1561
      8 H          -0.5162    1.4434   -0.0000 H       1  UNL1        0.0971
@<TRIPOS>BOND
     1     1     2    1
     2     1     4    2
     3     1     7    1
     4     2     3    2
     5     2     8    1
     6     4     5    1
     7     4     6    1
