@<TRIPOS>MOLECULE
GS-258-0.out
 14 13 0 0 0
SMALL
MULLIKEN_CHARGES
****
Gaussian 16 # wB97XD def2tzvp, opt=(calcfc, maxcycles=50, maxstep=10), freq=norama
@<TRIPOS>ATOM
      1 C          -0.6917    0.2615    0.0000 C.2     1  UNL1       -0.0329
      2 C           0.6871   -0.3177   -0.0000 C.2     1  UNL1        0.2758
      3 O           0.8310   -1.5245   -0.0000 O.2     1  UNL1       -0.4014
      4 C          -0.8802    1.5791   -0.0000 C.2     1  UNL1       -0.2757
      5 H          -1.8786    1.9997   -0.0000 H       1  UNL1        0.1563
      6 H          -0.0586    2.2827   -0.0000 H       1  UNL1        0.1642
      7 C          -1.8218   -0.7233    0.0000 C.3     1  UNL1       -0.3411
      8 H          -1.7700   -1.3717    0.8763 H       1  UNL1        0.1332
      9 H          -2.7819   -0.2094    0.0000 H       1  UNL1        0.1309
     10 H          -1.7700   -1.3717   -0.8763 H       1  UNL1        0.1332
     11 C           1.8844    0.5978    0.0000 C.3     1  UNL1       -0.3964
     12 H           1.8768    1.2425    0.8801 H       1  UNL1        0.1573
     13 H           2.7904   -0.0029   -0.0000 H       1  UNL1        0.1392
     14 H           1.8768    1.2425   -0.8801 H       1  UNL1        0.1573
@<TRIPOS>BOND
     1    14    11    1
     2    10     7    1
     3    13    11    1
     4     3     2    2
     5     5     4    1
     6     6     4    1
     7     1     2    1
     8     1     4    2
     9     1     7    1
    10     2    11    1
    11     7     9    1
    12     7     8    1
    13    11    12    1
