@<TRIPOS>MOLECULE
GS-280-0.out
 18 18 0 0 0
SMALL
MULLIKEN_CHARGES
****
Gaussian 16 # wb97xd def2tzvp opt=(calcfc, maxcycles=100, maxstep=10) freq=noraman
@<TRIPOS>ATOM
      1 C           1.9349    0.0988    0.1974 C.2     1  UNL1        0.0029
      2 C           0.7318    0.9963    0.0636 C.2     1  UNL1        0.3028
      3 O           0.9004    2.1922   -0.0168 O.2     1  UNL1       -0.3637
      4 C           2.9080    0.3492    1.0550 C.2     1  UNL1       -0.2836
      5 H           3.7706   -0.2955    1.1508 H       1  UNL1        0.1784
      6 H           2.8398    1.2214    1.6918 H       1  UNL1        0.1768
      7 CL          1.9889   -1.2724   -0.8739 Cl      1  UNL1       -0.0877
      8 C          -0.6272    0.3938    0.0649 C.ar    1  UNL1        0.1033
      9 C          -1.6683    1.0898   -0.5458 C.ar    1  UNL1       -0.1989
     10 C          -2.9539    0.5793   -0.5194 C.ar    1  UNL1       -0.1277
     11 C          -3.2106   -0.6184    0.1358 C.ar    1  UNL1       -0.1258
     12 C          -2.1800   -1.3081    0.7587 C.ar    1  UNL1       -0.1434
     13 C          -0.8884   -0.8097    0.7155 C.ar    1  UNL1       -0.2154
     14 H          -1.4571    2.0269   -1.0442 H       1  UNL1        0.1516
     15 H          -3.7582    1.1150   -1.0065 H       1  UNL1        0.1512
     16 H          -4.2178   -1.0146    0.1615 H       1  UNL1        0.1531
     17 H          -2.3822   -2.2363    1.2769 H       1  UNL1        0.1517
     18 H          -0.0884   -1.3506    1.2049 H       1  UNL1        0.1744
@<TRIPOS>BOND
     1    14     9    1
     2    15    10    1
     3     7     1    1
     4     9    10   ar
     5     9     8   ar
     6    10    11   ar
     7     3     2    2
     8     2     8    1
     9     2     1    1
    10     8    13   ar
    11    11    16    1
    12    11    12   ar
    13     1     4    2
    14    13    12   ar
    15    13    18    1
    16    12    17    1
    17     4     5    1
    18     4     6    1
