@<TRIPOS>MOLECULE
GS-297-0.out
 14 13 0 0 0
SMALL
MULLIKEN_CHARGES
****
Gaussian 16 # wB97XD def2tzvp, opt=(calcfc, maxcycles=50, maxstep=10), freq=norama
@<TRIPOS>ATOM
      1 C           0.1092    0.3795    0.0000 C.2     1  UNL1       -0.0220
      2 C           0.7177   -0.9563    0.0000 C.2     1  UNL1        0.1593
      3 O           1.9165   -1.1470   -0.0000 O.2     1  UNL1       -0.3986
      4 C          -1.2218    0.5381   -0.0000 C.2     1  UNL1       -0.0954
      5 H          -1.5877    1.5623   -0.0000 H       1  UNL1        0.1483
      6 C          -2.3059   -0.4866   -0.0000 C.3     1  UNL1       -0.3207
      7 H          -2.9434   -0.3385    0.8750 H       1  UNL1        0.1429
      8 H          -2.9434   -0.3385   -0.8750 H       1  UNL1        0.1429
      9 H          -1.9589   -1.5161   -0.0000 H       1  UNL1        0.1194
     10 C           1.0574    1.5433    0.0000 C.3     1  UNL1       -0.3561
     11 H           1.7074    1.5146   -0.8768 H       1  UNL1        0.1310
     12 H           0.5149    2.4877    0.0000 H       1  UNL1        0.1305
     13 H           1.7074    1.5146    0.8768 H       1  UNL1        0.1310
     14 H           0.0323   -1.8183    0.0000 H       1  UNL1        0.0874
@<TRIPOS>BOND
     1    11    10    1
     2     8     6    1
     3     9     6    1
     4     3     2    2
     5     5     4    1
     6     1     4    2
     7     1    10    1
     8     1     2    1
     9     4     6    1
    10     6     7    1
    11    10    12    1
    12    10    13    1
    13     2    14    1
