@<TRIPOS>MOLECULE
GS-247-0.out
 30 31 0 0 0
SMALL
MULLIKEN_CHARGES
****
Gaussian 16 # wB97XD def2tzvp, opt=(calcfc, maxcycles=50, maxstep=10), freq=norama
@<TRIPOS>ATOM
      1 C           1.3994    1.5553   -0.0347 C.2     1  UNL1        0.0252
      2 C          -0.1037    1.5038    0.1031 C.2     1  UNL1        0.3785
      3 O          -0.7583    2.4959    0.3754 O.2     1  UNL1       -0.4789
      4 C           1.9544    2.7446   -0.2440 C.2     1  UNL1       -0.2775
      5 H           3.0257    2.8526   -0.3540 H       1  UNL1        0.1661
      6 H           1.3416    3.6342   -0.3048 H       1  UNL1        0.1602
      7 C           2.2077    0.3110    0.0334 C.ar    1  UNL1        0.0971
      8 C           3.1121    0.0002   -0.9804 C.ar    1  UNL1       -0.2438
      9 C           3.8922   -1.1436   -0.9047 C.ar    1  UNL1       -0.1343
     10 C           3.7763   -1.9952    0.1840 C.ar    1  UNL1       -0.1434
     11 C           2.8757   -1.6981    1.1974 C.ar    1  UNL1       -0.1144
     12 C           2.0955   -0.5553    1.1220 C.ar    1  UNL1       -0.2714
     13 H           3.1953    0.6573   -1.8370 H       1  UNL1        0.1581
     14 H           4.5879   -1.3722   -1.7019 H       1  UNL1        0.1465
     15 H           4.3833   -2.8896    0.2418 H       1  UNL1        0.1484
     16 H           2.7825   -2.3558    2.0521 H       1  UNL1        0.1483
     17 H           1.3991   -0.3276    1.9202 H       1  UNL1        0.1558
     18 N          -0.6433    0.2801   -0.1378 N.am    1  UNL1       -0.2444
     19 C          -1.9876   -0.1243   -0.1139 C.ar    1  UNL1        0.3004
     20 C          -2.2466   -1.4622   -0.4180 C.ar    1  UNL1       -0.3075
     21 C          -3.5425   -1.9438   -0.4142 C.ar    1  UNL1       -0.0969
     22 C          -4.6027   -1.1010   -0.1072 C.ar    1  UNL1       -0.1864
     23 C          -4.3442    0.2264    0.1941 C.ar    1  UNL1       -0.1091
     24 C          -3.0484    0.7249    0.1940 C.ar    1  UNL1       -0.2909
     25 H           0.0133   -0.4487   -0.3679 H       1  UNL1        0.2679
     26 H          -1.4244   -2.1261   -0.6589 H       1  UNL1        0.1469
     27 H          -3.7233   -2.9841   -0.6526 H       1  UNL1        0.1467
     28 H          -5.6175   -1.4768   -0.1042 H       1  UNL1        0.1439
     29 H          -5.1613    0.8950    0.4349 H       1  UNL1        0.1447
     30 H          -2.8577    1.7590    0.4284 H       1  UNL1        0.1643
@<TRIPOS>BOND
     1    13     8    1
     2    14     9    1
     3     8     9   ar
     4     8     7   ar
     5     9    10   ar
     6    26    20    1
     7    27    21    1
     8    20    21   ar
     9    20    19   ar
    10    21    22   ar
    11    25    18    1
    12     5     4    1
    13     6     4    1
    14     4     1    2
    15    18    19    1
    16    18     2   am
    17    19    24   ar
    18    22    28    1
    19    22    23   ar
    20     1     7    1
    21     1     2    1
    22     7    12   ar
    23     2     3    2
    24    10    15    1
    25    10    11   ar
    26    24    23   ar
    27    24    30    1
    28    23    29    1
    29    12    11   ar
    30    12    17    1
    31    11    16    1
