@<TRIPOS>MOLECULE
GS-220-0.out
 25 25 0 0 0
SMALL
MULLIKEN_CHARGES
****
Gaussian 16 # wB97XD def2tzvp, opt=(calcfc, maxcycles=50, maxstep=10), freq=norama
@<TRIPOS>ATOM
      1 C           1.5226   -1.1138    0.0410 C.2     1  UNL1        0.0582
      2 C           1.8535    0.3430    0.1003 C.2     1  UNL1        0.3338
      3 O           2.5781    0.8286    0.9362 O.2     1  UNL1       -0.4120
      4 C           0.2692   -1.5681    0.0237 C.2     1  UNL1       -0.2461
      5 H           0.1390   -2.6447   -0.0448 H       1  UNL1        0.1532
      6 C          -0.9818   -0.7940    0.0956 C.ar    1  UNL1        0.2494
      7 C          -2.0835   -1.2188   -0.6478 C.ar    1  UNL1       -0.2416
      8 C          -3.2772   -0.5158   -0.6147 C.ar    1  UNL1       -0.1339
      9 C          -3.3964    0.6163    0.1792 C.ar    1  UNL1       -0.1523
     10 C          -2.3166    1.0334    0.9449 C.ar    1  UNL1       -0.1387
     11 C          -1.1224    0.3320    0.9072 C.ar    1  UNL1       -0.2548
     12 H          -1.9974   -2.1051   -1.2656 H       1  UNL1        0.1410
     13 H          -4.1175   -0.8550   -1.2071 H       1  UNL1        0.1444
     14 H          -4.3298    1.1638    0.2106 H       1  UNL1        0.1460
     15 H          -2.4068    1.9037    1.5827 H       1  UNL1        0.1451
     16 H          -0.2986    0.6533    1.5331 H       1  UNL1        0.1665
     17 C           2.7199   -2.0181    0.0523 C.3     1  UNL1       -0.3496
     18 H           3.3764   -1.8096   -0.7958 H       1  UNL1        0.1406
     19 H           3.3057   -1.8608    0.9601 H       1  UNL1        0.1407
     20 H           2.4156   -3.0627    0.0093 H       1  UNL1        0.1349
     21 O           1.3022    1.0378   -0.8889 O.3     1  UNL1       -0.2594
     22 C           1.5134    2.4515   -0.8701 C.3     1  UNL1       -0.1999
     23 H           1.0011    2.8367   -1.7465 H       1  UNL1        0.1491
     24 H           1.0885    2.8824    0.0364 H       1  UNL1        0.1424
     25 H           2.5769    2.6810   -0.9195 H       1  UNL1        0.1432
@<TRIPOS>BOND
     1    23    22    1
     2    12     7    1
     3    13     8    1
     4    25    22    1
     5    21    22    1
     6    21     2    1
     7    22    24    1
     8    18    17    1
     9     7     8   ar
    10     7     6   ar
    11     8     9   ar
    12     5     4    1
    13    20    17    1
    14     4     1    2
    15     4     6    1
    16     1    17    1
    17     1     2    1
    18    17    19    1
    19     6    11   ar
    20     2     3    2
    21     9    14    1
    22     9    10   ar
    23    11    10   ar
    24    11    16    1
    25    10    15    1
