@<TRIPOS>MOLECULE
GS-25-1.out
 28 29 0 0 0
SMALL
MULLIKEN_CHARGES
****
Gaussian 16 # wB97XD def2tzvp, opt=(maxcycles=70, maxstep=1), freq=noraman, scrf=(
@<TRIPOS>ATOM
      1 C          -0.4842   -1.2765   -0.1018 C.2     1  UNL1       -0.0720
      2 C           0.1594   -2.5718   -0.3834 C.2     1  UNL1        0.0952
      3 O          -0.3898   -3.6448   -0.3204 O.2     1  UNL1       -0.3610
      4 C           0.1912   -0.1110   -0.0672 C.2     1  UNL1        0.1644
      5 C          -0.4593    1.2191    0.0019 C.ar    1  UNL1        0.1265
      6 C          -1.3654    1.6262   -0.9742 C.ar    1  UNL1       -0.2499
      7 C          -1.9278    2.8912   -0.9194 C.ar    1  UNL1       -0.1256
      8 C          -1.6032    3.7541    0.1179 C.ar    1  UNL1       -0.1278
      9 C          -0.6989    3.3549    1.0919 C.ar    1  UNL1       -0.1500
     10 C          -0.1167    2.0995    1.0256 C.ar    1  UNL1       -0.2090
     11 H          -1.6186    0.9553   -1.7848 H       1  UNL1        0.1643
     12 H          -2.6216    3.2032   -1.6893 H       1  UNL1        0.1475
     13 H          -2.0492    4.7393    0.1632 H       1  UNL1        0.1494
     14 H          -0.4388    4.0256    1.9006 H       1  UNL1        0.1472
     15 H           0.6030    1.7956    1.7756 H       1  UNL1        0.1603
     16 C           1.6758   -0.0854   -0.0634 C.ar    1  UNL1        0.1466
     17 C           2.3547    0.7306   -0.9690 C.ar    1  UNL1       -0.2052
     18 C           3.7372    0.7764   -0.9672 C.ar    1  UNL1       -0.1476
     19 C           4.4590    0.0317   -0.0423 C.ar    1  UNL1       -0.1282
     20 C           3.7916   -0.7600    0.8787 C.ar    1  UNL1       -0.1098
     21 C           2.4059   -0.8203    0.8683 C.ar    1  UNL1       -0.2902
     22 H           1.7937    1.3205   -1.6830 H       1  UNL1        0.1634
     23 H           4.2548    1.3990   -1.6855 H       1  UNL1        0.1484
     24 H           5.5404    0.0771   -0.0359 H       1  UNL1        0.1510
     25 H           4.3473   -1.3299    1.6119 H       1  UNL1        0.1500
     26 H           1.8850   -1.4236    1.6012 H       1  UNL1        0.1705
     27 BR         -2.3572   -1.3789    0.1747 Br      1  UNL1       -0.0538
     28 H           1.2089   -2.4924   -0.7032 H       1  UNL1        0.1449
@<TRIPOS>BOND
     1    11     6    1
     2    12     7    1
     3    23    18    1
     4    22    17    1
     5     6     7   ar
     6     6     5   ar
     7    17    18   ar
     8    17    16   ar
     9    18    19   ar
    10     7     8   ar
    11    28     2    1
    12     2     3    2
    13     2     1    1
    14     1     4    2
    15     1    27    1
    16     4    16    1
    17     4     5    1
    18    16    21   ar
    19    19    24    1
    20    19    20   ar
    21     5    10   ar
    22     8    13    1
    23     8     9   ar
    24    21    20   ar
    25    21    26    1
    26    20    25    1
    27    10     9   ar
    28    10    15    1
    29     9    14    1
