@<TRIPOS>MOLECULE
GS-277-0.out
 13 12 0 0 0
SMALL
MULLIKEN_CHARGES
****
Gaussian 16 # wB97XD def2tzvp, opt=(calcfc, maxcycles=50, maxstep=10), freq=norama
@<TRIPOS>ATOM
      1 C          -0.9184    0.4348   -0.0000 C.2     1  UNL1       -0.0011
      2 C           0.5885    0.5122    0.0001 C.2     1  UNL1        0.3715
      3 O           1.1397    1.6047    0.0002 O.2     1  UNL1       -0.4899
      4 C          -1.6635    1.5256   -0.0002 C.2     1  UNL1       -0.2755
      5 H          -2.7432    1.4840   -0.0003 H       1  UNL1        0.1790
      6 H          -1.1724    2.4888   -0.0003 H       1  UNL1        0.1746
      7 CL         -1.6619   -1.1448    0.0001 Cl      1  UNL1       -0.1052
      8 N           1.2582   -0.6444   -0.0002 N.am    1  UNL1       -0.2957
      9 C           2.7040   -0.6802   -0.0001 C.3     1  UNL1       -0.2512
     10 H           0.7467   -1.5090   -0.0000 H       1  UNL1        0.2623
     11 H           3.0254   -1.7182   -0.0028 H       1  UNL1        0.1500
     12 H           3.1035   -0.1805   -0.8835 H       1  UNL1        0.1405
     13 H           3.1034   -0.1853    0.8861 H       1  UNL1        0.1405
@<TRIPOS>BOND
     1    12     9    1
     2    11     9    1
     3     6     4    1
     4     5     4    1
     5     8     9    1
     6     8    10    1
     7     8     2   am
     8     4     1    2
     9     9    13    1
    10     1     2    1
    11     1     7    1
    12     2     3    2
