@<TRIPOS>MOLECULE
GS-294-1.out
 19 18 0 0 0
SMALL
MULLIKEN_CHARGES
****
Gaussian 16 # wB97XD def2tzvp, opt=(calcfc, maxcycles=70, maxstep=1), freq=noraman
@<TRIPOS>ATOM
      1 C           0.9030    0.6850   -0.6512 C.2     1  UNL1       -0.3537
      2 C          -0.1303   -0.3451   -0.3287 C.2     1  UNL1        0.3698
      3 O           0.1150   -1.5465   -0.4320 O.2     1  UNL1       -0.5168
      4 C           2.1604    0.6513   -0.2216 C.2     1  UNL1       -0.0789
      5 H           2.8188    1.4448   -0.5634 H       1  UNL1        0.1453
      6 C           2.7795   -0.3395    0.7068 C.3     1  UNL1       -0.3345
      7 H           3.2608    0.1812    1.5379 H       1  UNL1        0.1327
      8 H           2.0563   -1.0512    1.0980 H       1  UNL1        0.1286
      9 H           3.5652   -0.8965    0.1894 H       1  UNL1        0.1355
     10 H           0.5921    1.4967   -1.2990 H       1  UNL1        0.1813
     11 N          -1.3504    0.1100    0.0341 N.am    1  UNL1       -0.1046
     12 C          -2.4448   -0.8178    0.2300 C.3     1  UNL1       -0.2818
     13 C          -1.6576    1.4998    0.3063 C.3     1  UNL1       -0.2969
     14 H          -2.1817   -1.7838   -0.1895 H       1  UNL1        0.1458
     15 H          -2.6669   -0.9389    1.2938 H       1  UNL1        0.1407
     16 H          -3.3378   -0.4348   -0.2677 H       1  UNL1        0.1392
     17 H          -0.7502    2.0861    0.4148 H       1  UNL1        0.1602
     18 H          -2.2710    1.9305   -0.4896 H       1  UNL1        0.1460
     19 H          -2.2144    1.5659    1.2430 H       1  UNL1        0.1419
@<TRIPOS>BOND
     1    10     1    1
     2     1     2    1
     3     1     4    2
     4     5     4    1
     5    18    13    1
     6     3     2    2
     7     2    11   am
     8    16    12    1
     9     4     6    1
    10    14    12    1
    11    11    12    1
    12    11    13    1
    13     9     6    1
    14    12    15    1
    15    13    17    1
    16    13    19    1
    17     6     8    1
    18     6     7    1
