@<TRIPOS>MOLECULE
GS-264-0.out
 21 21 0 0 0
SMALL
MULLIKEN_CHARGES
****
Gaussian 16 # wB97XD def2tzvp, opt=(calcfc, maxcycles=50, maxstep=10), freq=norama
@<TRIPOS>ATOM
      1 C           2.0835   -0.3761    0.1870 C.2     1  UNL1       -0.0300
      2 C           1.0155    0.6286   -0.1015 C.2     1  UNL1        0.2728
      3 O           1.3228    1.7764   -0.3639 O.2     1  UNL1       -0.3993
      4 C           1.8460   -1.4029    0.9998 C.2     1  UNL1       -0.2818
      5 H           2.6381   -2.0888    1.2757 H       1  UNL1        0.1542
      6 H           0.8702   -1.5797    1.4321 H       1  UNL1        0.1757
      7 C           3.4357   -0.0795   -0.3880 C.3     1  UNL1       -0.3509
      8 H           3.8085    0.8765   -0.0176 H       1  UNL1        0.1362
      9 H           4.1474   -0.8606   -0.1250 H       1  UNL1        0.1338
     10 H           3.3846   -0.0018   -1.4760 H       1  UNL1        0.1378
     11 C          -0.4269    0.2366   -0.0576 C.ar    1  UNL1        0.1657
     12 C          -1.3535    1.1661    0.4110 C.ar    1  UNL1       -0.2204
     13 C          -2.7032    0.8608    0.4269 C.ar    1  UNL1       -0.1274
     14 C          -3.1426   -0.3673   -0.0514 C.ar    1  UNL1       -0.1416
     15 C          -2.2281   -1.2894   -0.5384 C.ar    1  UNL1       -0.1098
     16 C          -0.8732   -0.9941   -0.5328 C.ar    1  UNL1       -0.2823
     17 H          -1.0039    2.1257    0.7696 H       1  UNL1        0.1476
     18 H          -3.4153    1.5811    0.8087 H       1  UNL1        0.1484
     19 H          -4.1991   -0.6034   -0.0466 H       1  UNL1        0.1504
     20 H          -2.5689   -2.2420   -0.9227 H       1  UNL1        0.1494
     21 H          -0.1638   -1.7153   -0.9164 H       1  UNL1        0.1716
@<TRIPOS>BOND
     1    10     7    1
     2    20    15    1
     3    21    16    1
     4    15    16   ar
     5    15    14   ar
     6    16    11   ar
     7     7     9    1
     8     7     8    1
     9     7     1    1
    10     3     2    2
    11     2    11    1
    12     2     1    1
    13    11    12   ar
    14    14    19    1
    15    14    13   ar
    16     1     4    2
    17    12    13   ar
    18    12    17    1
    19    13    18    1
    20     4     5    1
    21     4     6    1
