@<TRIPOS>MOLECULE
GS-259-0.out
 13 12 0 0 0
SMALL
MULLIKEN_CHARGES
****
Gaussian 16 # wB97XD def2tzvp, opt=(calcfc, maxcycles=50, maxstep=10), freq=norama
@<TRIPOS>ATOM
      1 C          -0.6962    0.1957   -0.0120 C.2     1  UNL1       -0.0153
      2 C           0.7527   -0.2040   -0.0451 C.2     1  UNL1        0.3260
      3 O           1.0897   -1.3205   -0.4181 O.2     1  UNL1       -0.4785
      4 C          -1.0734    1.4301   -0.3262 C.2     1  UNL1       -0.3196
      5 H          -2.1215    1.7037   -0.3436 H       1  UNL1        0.1525
      6 H          -0.3634    2.2003   -0.6010 H       1  UNL1        0.1565
      7 C          -1.6574   -0.9063    0.3129 C.3     1  UNL1       -0.3397
      8 H          -1.4455   -1.3288    1.2976 H       1  UNL1        0.1362
      9 H          -2.6832   -0.5409    0.3019 H       1  UNL1        0.1310
     10 H          -1.5626   -1.7180   -0.4097 H       1  UNL1        0.1354
     11 N           1.6457    0.7240    0.3468 N.am    1  UNL1       -0.4559
     12 H           2.6244    0.4949    0.3346 H       1  UNL1        0.2799
     13 H           1.3604    1.5921    0.7606 H       1  UNL1        0.2915
@<TRIPOS>BOND
     1     6     4    1
     2     3     2    2
     3    10     7    1
     4     5     4    1
     5     4     1    2
     6     2     1    1
     7     2    11   am
     8     1     7    1
     9     9     7    1
    10     7     8    1
    11    12    11    1
    12    11    13    1
