@<TRIPOS>MOLECULE
GS-256-0.out
 18 18 0 0 0
SMALL
MULLIKEN_CHARGES
****
Gaussian 16 # wB97XD def2tzvp, opt=(calcfc, maxcycles=50, maxstep=10), freq=norama
@<TRIPOS>ATOM
      1 C          -2.2386   -0.7113    0.2640 C.2     1  UNL1       -0.2278
      2 C          -1.2947    0.4033   -0.0267 C.2     1  UNL1        0.3415
      3 O          -1.7023    1.5235   -0.2702 O.2     1  UNL1       -0.4136
      4 C          -3.5389   -0.5895    0.0309 C.2     1  UNL1       -0.2412
      5 H          -4.2281   -1.3948    0.2492 H       1  UNL1        0.1667
      6 H          -3.9444    0.3233   -0.3893 H       1  UNL1        0.1589
      7 H          -1.8421   -1.6275    0.6811 H       1  UNL1        0.1613
      8 C           0.1721    0.1219   -0.0007 C.ar    1  UNL1        0.1188
      9 C           1.0524    1.1950    0.1365 C.ar    1  UNL1       -0.2003
     10 C           2.4191    0.9840    0.1476 C.ar    1  UNL1       -0.1234
     11 C           2.9234   -0.3029    0.0045 C.ar    1  UNL1       -0.1295
     12 C           2.0567   -1.3752   -0.1446 C.ar    1  UNL1       -0.1414
     13 C           0.6860   -1.1662   -0.1388 C.ar    1  UNL1       -0.2208
     14 H           0.6486    2.1936    0.2396 H       1  UNL1        0.1487
     15 H           3.0946    1.8214    0.2662 H       1  UNL1        0.1492
     16 H           3.9933   -0.4688    0.0089 H       1  UNL1        0.1515
     17 H           2.4473   -2.3772   -0.2646 H       1  UNL1        0.1496
     18 H           0.0249   -2.0129   -0.2655 H       1  UNL1        0.1520
@<TRIPOS>BOND
     1     6     4    1
     2     3     2    2
     3    18    13    1
     4    17    12    1
     5    12    13   ar
     6    12    11   ar
     7    13     8   ar
     8     2     8    1
     9     2     1    1
    10     8     9   ar
    11    11    16    1
    12    11    10   ar
    13     4     5    1
    14     4     1    2
    15     9    10   ar
    16     9    14    1
    17    10    15    1
    18     1     7    1
