@<TRIPOS>MOLECULE
GS-28-1.out
 32 33 0 0 0
SMALL
MULLIKEN_CHARGES
****
Gaussian 16 # wB97XD def2tzvp, opt=(maxcycles=70, maxstep=1), freq=noraman, scrf=(
@<TRIPOS>ATOM
      1 C          -0.1520   -1.0965   -0.0556 C.2     1  UNL1       -0.0368
      2 C          -1.5423   -1.6548   -0.0488 C.2     1  UNL1        0.2937
      3 O          -1.9666   -2.4175   -0.8786 O.2     1  UNL1       -0.3890
      4 C           0.1397    0.2066   -0.0279 C.2     1  UNL1        0.1228
      5 C           1.5252    0.7384    0.0243 C.ar    1  UNL1        0.1233
      6 C           1.9780    1.5835   -0.9856 C.ar    1  UNL1       -0.2106
      7 C           3.2610    2.1048   -0.9390 C.ar    1  UNL1       -0.1516
      8 C           4.0945    1.8070    0.1302 C.ar    1  UNL1       -0.1286
      9 C           3.6410    0.9832    1.1503 C.ar    1  UNL1       -0.1284
     10 C           2.3637    0.4471    1.0960 C.ar    1  UNL1       -0.2477
     11 H           1.3230    1.8286   -1.8128 H       1  UNL1        0.1564
     12 H           3.6082    2.7500   -1.7358 H       1  UNL1        0.1457
     13 H           5.0938    2.2212    0.1710 H       1  UNL1        0.1480
     14 H           4.2825    0.7566    1.9922 H       1  UNL1        0.1460
     15 H           2.0103   -0.1945    1.8932 H       1  UNL1        0.1615
     16 C          -0.9426    1.2250   -0.0857 C.ar    1  UNL1        0.1706
     17 C          -0.9709    2.2601    0.8471 C.ar    1  UNL1       -0.2299
     18 C          -1.9797    3.2075    0.8102 C.ar    1  UNL1       -0.1481
     19 C          -2.9601    3.1458   -0.1720 C.ar    1  UNL1       -0.1298
     20 C          -2.9232    2.1341   -1.1190 C.ar    1  UNL1       -0.1363
     21 C          -1.9183    1.1792   -1.0777 C.ar    1  UNL1       -0.2475
     22 H          -0.2046    2.3143    1.6106 H       1  UNL1        0.1596
     23 H          -2.0003    3.9989    1.5485 H       1  UNL1        0.1456
     24 H          -3.7447    3.8908   -0.2029 H       1  UNL1        0.1481
     25 H          -3.6739    2.0890   -1.8975 H       1  UNL1        0.1469
     26 H          -1.8837    0.4013   -1.8306 H       1  UNL1        0.1621
     27 BR          1.1608   -2.4535   -0.2124 Br      1  UNL1       -0.0376
     28 O          -2.2337   -1.2223    0.9952 O.3     1  UNL1       -0.2542
     29 C          -3.6121   -1.6043    1.0461 C.3     1  UNL1       -0.1990
     30 H          -4.0034   -1.1644    1.9580 H       1  UNL1        0.1525
     31 H          -4.1394   -1.2110    0.1773 H       1  UNL1        0.1454
     32 H          -3.7057   -2.6887    1.0739 H       1  UNL1        0.1470
@<TRIPOS>BOND
     1    25    20    1
     2    26    21    1
     3    11     6    1
     4    12     7    1
     5    20    21   ar
     6    20    19   ar
     7    21    16   ar
     8     6     7   ar
     9     6     5   ar
    10     7     8   ar
    11     3     2    2
    12    27     1    1
    13    24    19    1
    14    19    18   ar
    15    16     4    1
    16    16    17   ar
    17     1     2    1
    18     1     4    2
    19     2    28    1
    20     4     5    1
    21     5    10   ar
    22     8    13    1
    23     8     9   ar
    24    31    29    1
    25    18    17   ar
    26    18    23    1
    27    17    22    1
    28    28    29    1
    29    29    32    1
    30    29    30    1
    31    10     9   ar
    32    10    15    1
    33     9    14    1
