@<TRIPOS>MOLECULE
GS-2-0.out
 41 43 0 0 0
SMALL
MULLIKEN_CHARGES
****
Gaussian 16 # wb97xd def2tzvp opt=(calcfc, maxcycles=100, maxstep=10) freq=noraman
@<TRIPOS>ATOM
      1 C           0.3017   -1.0010   -0.1288 C.2     1  UNL1        0.0270
      2 C          -0.2040   -2.4092   -0.2902 C.2     1  UNL1        0.1720
      3 O          -0.9508   -2.7149   -1.1935 O.2     1  UNL1       -0.3741
      4 C          -0.5376    0.0468   -0.0909 C.2     1  UNL1        0.2875
      5 C          -0.0513    1.4519   -0.0760 C.ar    1  UNL1        0.0427
      6 C           0.8560    1.9071   -1.0302 C.ar    1  UNL1       -0.2243
      7 C           1.2961    3.2210   -1.0143 C.ar    1  UNL1       -0.1530
      8 C           0.8397    4.0972   -0.0396 C.ar    1  UNL1       -0.1236
      9 C          -0.0717    3.6556    0.9096 C.ar    1  UNL1       -0.1580
     10 C          -0.5229    2.3457    0.8834 C.ar    1  UNL1       -0.2199
     11 H           1.2156    1.2257   -1.7905 H       1  UNL1        0.1568
     12 H           1.9967    3.5617   -1.7661 H       1  UNL1        0.1418
     13 H           1.1874    5.1223   -0.0239 H       1  UNL1        0.1454
     14 H          -0.4356    4.3345    1.6704 H       1  UNL1        0.1423
     15 H          -1.2413    2.0077    1.6205 H       1  UNL1        0.1559
     16 C          -2.0136   -0.1167   -0.0237 C.ar    1  UNL1        0.1046
     17 C          -2.6021   -0.8953    0.9690 C.ar    1  UNL1       -0.2314
     18 C          -3.9805   -1.0314    1.0360 C.ar    1  UNL1       -0.1500
     19 C          -4.7885   -0.3882    0.1105 C.ar    1  UNL1       -0.1304
     20 C          -4.2112    0.4025   -0.8747 C.ar    1  UNL1       -0.1509
     21 C          -2.8349    0.5465   -0.9335 C.ar    1  UNL1       -0.2402
     22 H          -1.9756   -1.3883    1.7027 H       1  UNL1        0.1570
     23 H          -4.4231   -1.6372    1.8166 H       1  UNL1        0.1423
     24 H          -5.8647   -0.4945    0.1608 H       1  UNL1        0.1456
     25 H          -4.8362    0.9113   -1.5976 H       1  UNL1        0.1428
     26 H          -2.3891    1.1712   -1.6982 H       1  UNL1        0.1523
     27 C           1.7777   -0.8838    0.0097 C.ar    1  UNL1        0.0817
     28 C           2.3454   -0.2650    1.1212 C.ar    1  UNL1       -0.2023
     29 C           3.7218   -0.1722    1.2495 C.ar    1  UNL1       -0.1628
     30 C           4.5508   -0.7004    0.2692 C.ar    1  UNL1       -0.1218
     31 C           3.9951   -1.3289   -0.8359 C.ar    1  UNL1       -0.1434
     32 C           2.6177   -1.4250   -0.9609 C.ar    1  UNL1       -0.2361
     33 H           1.7000    0.1482    1.8862 H       1  UNL1        0.1560
     34 H           4.1488    0.3121    2.1186 H       1  UNL1        0.1424
     35 H           5.6262   -0.6261    0.3687 H       1  UNL1        0.1460
     36 H           4.6350   -1.7451   -1.6036 H       1  UNL1        0.1437
     37 H           2.1896   -1.9142   -1.8283 H       1  UNL1        0.1500
     38 C           0.3048   -3.4288    0.6938 C.3     1  UNL1       -0.3736
     39 H           0.3432   -3.0144    1.7020 H       1  UNL1        0.1516
     40 H          -0.3265   -4.3142    0.6663 H       1  UNL1        0.1460
     41 H           1.3248   -3.7111    0.4231 H       1  UNL1        0.1623
@<TRIPOS>BOND
     1    37    32    1
     2    11     6    1
     3    12     7    1
     4    26    21    1
     5    36    31    1
     6    25    20    1
     7     3     2    2
     8     6     7   ar
     9     6     5   ar
    10     7     8   ar
    11    32    31   ar
    12    32    27   ar
    13    21    20   ar
    14    21    16   ar
    15    20    19   ar
    16    31    30   ar
    17     2     1    1
    18     2    38    1
    19     1     4    2
    20     1    27    1
    21     4     5    1
    22     4    16    1
    23     5    10   ar
    24     8    13    1
    25     8     9   ar
    26    16    17   ar
    27    27    28   ar
    28    19    24    1
    29    19    18   ar
    30    30    35    1
    31    30    29   ar
    32    41    38    1
    33    40    38    1
    34    38    39    1
    35    10     9   ar
    36    10    15    1
    37     9    14    1
    38    17    18   ar
    39    17    22    1
    40    18    23    1
    41    28    29   ar
    42    28    33    1
    43    29    34    1
