@<TRIPOS>MOLECULE
GS-22-0.out
 39 40 0 0 0
SMALL
MULLIKEN_CHARGES
****
Gaussian 16 # wB97XD def2tzvp, opt=(calcfc, maxcycles=70, maxstep=10), freq=norama
@<TRIPOS>ATOM
      1 C          -0.2539   -1.4715   -0.3748 C.2     1  UNL1       -0.0099
      2 C          -1.7539   -1.5303   -0.5051 C.2     1  UNL1        0.1829
      3 O          -2.2398   -1.8637   -1.5854 O.2     1  UNL1       -0.4940
      4 C           0.3938   -0.3072   -0.2392 C.2     1  UNL1        0.1622
      5 C           1.8753   -0.2329   -0.1113 C.ar    1  UNL1        0.0940
      6 C           2.6124    0.5713   -0.9792 C.ar    1  UNL1       -0.2176
      7 C           3.9899    0.6622   -0.8613 C.ar    1  UNL1       -0.1596
      8 C           4.6514   -0.0362    0.1403 C.ar    1  UNL1       -0.1315
      9 C           3.9261   -0.8256    1.0201 C.ar    1  UNL1       -0.1277
     10 C           2.5480   -0.9232    0.8937 C.ar    1  UNL1       -0.2679
     11 H           2.0992    1.1272   -1.7549 H       1  UNL1        0.1506
     12 H           4.5490    1.2825   -1.5505 H       1  UNL1        0.1421
     13 H           5.7271    0.0396    0.2369 H       1  UNL1        0.1451
     14 H           4.4326   -1.3656    1.8102 H       1  UNL1        0.1424
     15 H           1.9843   -1.5359    1.5865 H       1  UNL1        0.1585
     16 C          -0.3140    1.0008   -0.1724 C.ar    1  UNL1        0.1378
     17 C          -0.0034    1.8999    0.8488 C.ar    1  UNL1       -0.2615
     18 C          -0.6663    3.1111    0.9542 C.ar    1  UNL1       -0.1389
     19 C          -1.6423    3.4542    0.0280 C.ar    1  UNL1       -0.1350
     20 C          -1.9444    2.5786   -1.0040 C.ar    1  UNL1       -0.1490
     21 C          -1.2835    1.3630   -1.1052 C.ar    1  UNL1       -0.2322
     22 H           0.7583    1.6390    1.5736 H       1  UNL1        0.1535
     23 H          -0.4206    3.7899    1.7612 H       1  UNL1        0.1414
     24 H          -2.1586    4.4025    0.1068 H       1  UNL1        0.1442
     25 H          -2.6937    2.8434   -1.7395 H       1  UNL1        0.1415
     26 H          -1.5189    0.6897   -1.9193 H       1  UNL1        0.1432
     27 C           0.3944   -2.8183   -0.5151 C.3     1  UNL1       -0.3896
     28 H           0.2442   -3.4151    0.3893 H       1  UNL1        0.1457
     29 H          -0.0690   -3.3599   -1.3410 H       1  UNL1        0.1458
     30 H           1.4635   -2.7426   -0.6989 H       1  UNL1        0.1482
     31 N          -2.5061   -1.2507    0.5770 N.am    1  UNL1       -0.0794
     32 C          -1.9841   -0.9239    1.8881 C.3     1  UNL1       -0.3048
     33 C          -3.9484   -1.1881    0.4589 C.3     1  UNL1       -0.2789
     34 H          -0.9313   -1.1773    1.9604 H       1  UNL1        0.1664
     35 H          -2.1053    0.1421    2.0978 H       1  UNL1        0.1509
     36 H          -2.5329   -1.4919    2.6413 H       1  UNL1        0.1508
     37 H          -4.2361   -1.3846   -0.5686 H       1  UNL1        0.1503
     38 H          -4.4153   -1.9268    1.1140 H       1  UNL1        0.1437
     39 H          -4.2979   -0.1947    0.7513 H       1  UNL1        0.1364
@<TRIPOS>BOND
     1    26    21    1
     2    11     6    1
     3    25    20    1
     4     3     2    2
     5    12     7    1
     6    29    27    1
     7    21    20   ar
     8    21    16   ar
     9    20    19   ar
    10     6     7   ar
    11     6     5   ar
    12     7     8   ar
    13    30    27    1
    14    37    33    1
    15    27     1    1
    16    27    28    1
    17     2     1    1
    18     2    31   am
    19     1     4    2
    20     4    16    1
    21     4     5    1
    22    16    17   ar
    23     5    10   ar
    24    19    24    1
    25    19    18   ar
    26     8    13    1
    27     8     9   ar
    28    33    31    1
    29    33    39    1
    30    33    38    1
    31    31    32    1
    32    17    18   ar
    33    17    22    1
    34    10     9   ar
    35    10    15    1
    36    18    23    1
    37     9    14    1
    38    32    34    1
    39    32    35    1
    40    32    36    1
