@<TRIPOS>MOLECULE
GS-29-1.out
 33 34 0 0 0
SMALL
MULLIKEN_CHARGES
****
Gaussian 16 # wB97XD def2tzvp, opt=(maxcycles=70, maxstep=1), freq=noraman, scrf=(
@<TRIPOS>ATOM
      1 C          -0.1917   -1.0824   -0.0831 C.2     1  UNL1       -0.0179
      2 C          -1.6045   -1.6063   -0.0912 C.2     1  UNL1        0.2159
      3 O          -2.0390   -2.2740   -1.0181 O.2     1  UNL1       -0.4610
      4 C           0.1472    0.2082   -0.0497 C.2     1  UNL1        0.1244
      5 C           1.5507    0.6916    0.0205 C.ar    1  UNL1        0.1156
      6 C           2.0556    1.4953   -0.9980 C.ar    1  UNL1       -0.2125
      7 C           3.3551    1.9727   -0.9343 C.ar    1  UNL1       -0.1524
      8 C           4.1544    1.6709    0.1596 C.ar    1  UNL1       -0.1291
      9 C           3.6498    0.8873    1.1873 C.ar    1  UNL1       -0.1291
     10 C           2.3551    0.3965    1.1169 C.ar    1  UNL1       -0.2497
     11 H           1.4278    1.7436   -1.8452 H       1  UNL1        0.1541
     12 H           3.7421    2.5866   -1.7375 H       1  UNL1        0.1451
     13 H           5.1668    2.0505    0.2133 H       1  UNL1        0.1475
     14 H           4.2649    0.6571    2.0479 H       1  UNL1        0.1453
     15 H           1.9616   -0.2142    1.9197 H       1  UNL1        0.1594
     16 C          -0.8982    1.2679   -0.1010 C.ar    1  UNL1        0.0686
     17 C          -0.8848    2.2976    0.8384 C.ar    1  UNL1       -0.1995
     18 C          -1.8558    3.2847    0.8110 C.ar    1  UNL1       -0.1502
     19 C          -2.8408    3.2671   -0.1676 C.ar    1  UNL1       -0.1251
     20 C          -2.8473    2.2585   -1.1193 C.ar    1  UNL1       -0.1484
     21 C          -1.8812    1.2645   -1.0876 C.ar    1  UNL1       -0.1993
     22 H          -0.1137    2.3184    1.5989 H       1  UNL1        0.1600
     23 H          -1.8421    4.0719    1.5539 H       1  UNL1        0.1453
     24 H          -3.5958    4.0424   -0.1920 H       1  UNL1        0.1477
     25 H          -3.6033    2.2464   -1.8940 H       1  UNL1        0.1460
     26 H          -1.8838    0.4854   -1.8393 H       1  UNL1        0.1535
     27 BR          1.0840   -2.4804   -0.2129 Br      1  UNL1       -0.0478
     28 N          -2.3186   -1.2990    0.9990 N.am    1  UNL1       -0.2670
     29 C          -3.7246   -1.6195    1.1074 C.3     1  UNL1       -0.2541
     30 H          -1.8971   -0.7132    1.6982 H       1  UNL1        0.2824
     31 H          -3.8848   -2.6846    0.9436 H       1  UNL1        0.1413
     32 H          -4.0645   -1.3579    2.1060 H       1  UNL1        0.1511
     33 H          -4.3104   -1.0627    0.3727 H       1  UNL1        0.1398
@<TRIPOS>BOND
     1    25    20    1
     2    11     6    1
     3    26    21    1
     4    12     7    1
     5    20    21   ar
     6    20    19   ar
     7    21    16   ar
     8     3     2    2
     9     6     7   ar
    10     6     5   ar
    11     7     8   ar
    12    27     1    1
    13    24    19    1
    14    19    18   ar
    15    16     4    1
    16    16    17   ar
    17     2     1    1
    18     2    28   am
    19     1     4    2
    20     4     5    1
    21     5    10   ar
    22     8    13    1
    23     8     9   ar
    24    33    29    1
    25    18    17   ar
    26    18    23    1
    27    17    22    1
    28    31    29    1
    29    28    29    1
    30    28    30    1
    31    29    32    1
    32    10     9   ar
    33    10    15    1
    34     9    14    1
