@<TRIPOS>MOLECULE
GS-252-0.out
 12 11 0 0 0
SMALL
MULLIKEN_CHARGES
****
Gaussian 16 # wB97XD def2tzvp, opt=(calcfc, maxcycles=50, maxstep=10), freq=norama
@<TRIPOS>ATOM
      1 C          -1.3132   -0.6395   -0.0000 C.2     1  UNL1       -0.2330
      2 C          -0.0399    0.1189   -0.0000 C.2     1  UNL1        0.4562
      3 O           0.0608    1.3224   -0.0000 O.2     1  UNL1       -0.4332
      4 C          -2.4824   -0.0174    0.0000 C.2     1  UNL1       -0.2341
      5 H          -3.4123   -0.5707    0.0000 H       1  UNL1        0.1683
      6 H          -2.5368    1.0646    0.0000 H       1  UNL1        0.1619
      7 H          -1.2379   -1.7193   -0.0000 H       1  UNL1        0.1595
      8 O           1.0065   -0.7072    0.0000 O.3     1  UNL1       -0.2790
      9 C           2.2984   -0.0976    0.0000 C.3     1  UNL1       -0.1935
     10 H           3.0116   -0.9165   -0.0000 H       1  UNL1        0.1479
     11 H           2.4295    0.5171   -0.8898 H       1  UNL1        0.1395
     12 H           2.4295    0.5171    0.8898 H       1  UNL1        0.1395
@<TRIPOS>BOND
     1    11     9    1
     2     7     1    1
     3    10     9    1
     4     1     2    1
     5     1     4    2
     6     3     2    2
     7     2     8    1
     8     9     8    1
     9     9    12    1
    10     5     4    1
    11     4     6    1
