@<TRIPOS>MOLECULE
GS-225-0.out
 18 18 0 0 0
SMALL
MULLIKEN_CHARGES
****
Gaussian 16 # wB97XD def2tzvp, opt=(calcfc, maxcycles=50, maxstep=10), freq=norama
@<TRIPOS>ATOM
      1 C           0.9610    0.0980   -0.0611 C.2     1  UNL1        0.0411
      2 C           0.8328    1.4892   -0.5283 C.2     1  UNL1        0.0934
      3 O           1.7462    2.2701   -0.6288 O.2     1  UNL1       -0.3557
      4 C          -0.0686   -0.7335    0.1385 C.2     1  UNL1       -0.1522
      5 H           0.1560   -1.7753    0.3421 H       1  UNL1        0.1844
      6 C          -1.4966   -0.3938    0.1081 C.ar    1  UNL1        0.2233
      7 C          -2.0055    0.7681    0.6898 C.ar    1  UNL1       -0.3056
      8 C          -3.3635    1.0402    0.6405 C.ar    1  UNL1       -0.1150
      9 C          -4.2293    0.1546    0.0167 C.ar    1  UNL1       -0.1405
     10 C          -3.7360   -1.0172   -0.5424 C.ar    1  UNL1       -0.1311
     11 C          -2.3822   -1.2969   -0.4848 C.ar    1  UNL1       -0.2272
     12 H          -1.3428    1.4444    1.2142 H       1  UNL1        0.1925
     13 H          -3.7457    1.9421    1.1005 H       1  UNL1        0.1516
     14 H          -5.2897    0.3684   -0.0203 H       1  UNL1        0.1518
     15 H          -4.4099   -1.7181   -1.0178 H       1  UNL1        0.1505
     16 H          -2.0007   -2.2155   -0.9136 H       1  UNL1        0.1505
     17 BR          2.7366   -0.5322    0.1512 Br      1  UNL1       -0.0664
     18 H          -0.1889    1.7682   -0.8288 H       1  UNL1        0.1549
@<TRIPOS>BOND
     1    15    10    1
     2    16    11    1
     3    18     2    1
     4     3     2    2
     5    10    11   ar
     6    10     9   ar
     7     2     1    1
     8    11     6   ar
     9     1     4    2
    10     1    17    1
    11    14     9    1
    12     9     8   ar
    13     6     4    1
    14     6     7   ar
    15     4     5    1
    16     8     7   ar
    17     8    13    1
    18     7    12    1
