@<TRIPOS>MOLECULE
GS-257-0.out
 11 10 0 0 0
SMALL
MULLIKEN_CHARGES
****
Gaussian 16 # wB97XD def2tzvp, opt=(calcfc, maxcycles=50, maxstep=10), freq=norama
@<TRIPOS>ATOM
      1 C           0.4797   -0.0779   -0.0000 C.2     1  UNL1        0.0107
      2 C          -0.8942   -0.6163   -0.0000 C.2     1  UNL1        0.1581
      3 O          -1.8930    0.0654    0.0000 O.2     1  UNL1       -0.3802
      4 C           1.4752   -0.9627    0.0000 C.2     1  UNL1       -0.2620
      5 H           2.5142   -0.6564    0.0000 H       1  UNL1        0.1609
      6 H           1.2735   -2.0281    0.0000 H       1  UNL1        0.1594
      7 C           0.6510    1.4076   -0.0000 C.3     1  UNL1       -0.3534
      8 H           0.1729    1.8482    0.8769 H       1  UNL1        0.1377
      9 H           1.7051    1.6800   -0.0000 H       1  UNL1        0.1360
     10 H           0.1729    1.8482   -0.8769 H       1  UNL1        0.1377
     11 H          -0.9651   -1.7203   -0.0000 H       1  UNL1        0.0952
@<TRIPOS>BOND
     1    10     7    1
     2    11     2    1
     3     1     2    1
     4     1     4    2
     5     1     7    1
     6     2     3    2
     7     4     6    1
     8     4     5    1
     9     7     9    1
    10     7     8    1
