@<TRIPOS>MOLECULE
GS-268-0.out
 12 11 0 0 0
SMALL
MULLIKEN_CHARGES
****
Gaussian 16 # wB97XD def2tzvp, opt=(calcfc, maxcycles=50, maxstep=10), freq=norama
@<TRIPOS>ATOM
      1 C          -0.2611    0.8541   -0.0000 C.2     1  UNL1       -0.0894
      2 C           1.1933    0.4941    0.0000 C.2     1  UNL1        0.4582
      3 O           2.0630    1.3290    0.0000 O.2     1  UNL1       -0.4143
      4 C          -0.6372    2.1221   -0.0000 C.2     1  UNL1       -0.2419
      5 H          -1.6772    2.4150   -0.0000 H       1  UNL1        0.1824
      6 H           0.1208    2.8944   -0.0000 H       1  UNL1        0.1781
      7 BR         -1.5435   -0.5408    0.0000 Br      1  UNL1       -0.0514
      8 O           1.4110   -0.8090   -0.0000 O.3     1  UNL1       -0.2646
      9 C           2.7809   -1.2242   -0.0000 C.3     1  UNL1       -0.1999
     10 H           2.7565   -2.3093   -0.0000 H       1  UNL1        0.1525
     11 H           3.2866   -0.8538   -0.8904 H       1  UNL1        0.1451
     12 H           3.2866   -0.8538    0.8904 H       1  UNL1        0.1451
@<TRIPOS>BOND
     1    11     9    1
     2    10     9    1
     3     5     4    1
     4     6     4    1
     5     4     1    2
     6     8     9    1
     7     8     2    1
     8     1     2    1
     9     1     7    1
    10     9    12    1
    11     2     3    2
