@<TRIPOS>MOLECULE
GS-281-0.out
 21 21 0 0 0
SMALL
MULLIKEN_CHARGES
****
Gaussian 16 # wB97XD def2tzvp, opt=(calcfc, maxcycles=50, maxstep=10), freq=norama
@<TRIPOS>ATOM
      1 C           0.9969    0.0179   -0.0180 C.2     1  UNL1       -0.0085
      2 C           1.6276   -1.2227   -0.5224 C.2     1  UNL1        0.1189
      3 O           2.7739   -1.5649   -0.3396 O.2     1  UNL1       -0.3803
      4 C           1.7079    1.0882    0.3692 C.2     1  UNL1       -0.1077
      5 H           1.1383    1.9433    0.7231 H       1  UNL1        0.1648
      6 C           3.1852    1.2722    0.3753 C.3     1  UNL1       -0.3348
      7 H           3.4284    2.3109    0.1486 H       1  UNL1        0.1352
      8 H           3.5778    1.0646    1.3756 H       1  UNL1        0.1481
      9 H           3.6961    0.6100   -0.3184 H       1  UNL1        0.1385
     10 C          -0.4884    0.0320   -0.0079 C.ar    1  UNL1        0.1982
     11 C          -1.2053    1.1424   -0.4526 C.ar    1  UNL1       -0.2693
     12 C          -2.5910    1.1517   -0.4207 C.ar    1  UNL1       -0.1291
     13 C          -3.2863    0.0447    0.0450 C.ar    1  UNL1       -0.1553
     14 C          -2.5856   -1.0711    0.4791 C.ar    1  UNL1       -0.1294
     15 C          -1.1993   -1.0770    0.4519 C.ar    1  UNL1       -0.2686
     16 H          -0.6719    2.0017   -0.8404 H       1  UNL1        0.1590
     17 H          -3.1295    2.0233   -0.7709 H       1  UNL1        0.1450
     18 H          -4.3686    0.0502    0.0656 H       1  UNL1        0.1461
     19 H          -3.1187   -1.9390    0.8463 H       1  UNL1        0.1454
     20 H          -0.6656   -1.9491    0.8118 H       1  UNL1        0.1631
     21 H           0.9520   -1.8662   -1.1171 H       1  UNL1        0.1206
@<TRIPOS>BOND
     1    21     2    1
     2    16    11    1
     3    17    12    1
     4     2     3    2
     5     2     1    1
     6    11    12   ar
     7    11    10   ar
     8    12    13   ar
     9     9     6    1
    10     1    10    1
    11     1     4    2
    12    10    15   ar
    13    13    18    1
    14    13    14   ar
    15     7     6    1
    16     4     6    1
    17     4     5    1
    18     6     8    1
    19    15    14   ar
    20    15    20    1
    21    14    19    1
