@<TRIPOS>MOLECULE
GS-290-1.out
 14 13 0 0 0
SMALL
MULLIKEN_CHARGES
****
Gaussian 16 # wB97XD def2tzvp, opt=(calcfc, maxcycles=70, maxstep=1), freq=noraman
@<TRIPOS>ATOM
      1 C           0.1170   -0.9147   -0.1191 C.2     1  UNL1       -0.2878
      2 C          -0.8884    0.1699   -0.0477 C.2     1  UNL1        0.3342
      3 O          -0.6152    1.3520   -0.1439 O.2     1  UNL1       -0.4279
      4 C           1.4442   -0.7851   -0.0408 C.2     1  UNL1       -0.0756
      5 H           2.0202   -1.7047   -0.1036 H       1  UNL1        0.1518
      6 C           2.2562    0.4511    0.1336 C.3     1  UNL1       -0.3255
      7 H           3.0305    0.2795    0.8841 H       1  UNL1        0.1340
      8 H           2.7763    0.6774   -0.8023 H       1  UNL1        0.1415
      9 H           1.6550    1.3125    0.4067 H       1  UNL1        0.1375
     10 H          -0.2922   -1.9145   -0.2151 H       1  UNL1        0.1560
     11 C          -2.3110   -0.2891    0.1436 C.3     1  UNL1       -0.3728
     12 H          -2.3884   -0.9001    1.0457 H       1  UNL1        0.1509
     13 H          -2.9811    0.5644    0.2134 H       1  UNL1        0.1335
     14 H          -2.6065   -0.9234   -0.6956 H       1  UNL1        0.1502
@<TRIPOS>BOND
     1     8     6    1
     2    14    11    1
     3    10     1    1
     4     3     2    2
     5     1     2    1
     6     1     4    2
     7     5     4    1
     8     2    11    1
     9     4     6    1
    10     6     9    1
    11     6     7    1
    12    11    13    1
    13    11    12    1
