@<TRIPOS>MOLECULE
GS-234-0.out
 21 21 0 0 0
SMALL
MULLIKEN_CHARGES
****
Gaussian 16 # wB97XD def2tzvp, opt=(calcfc, maxcycles=50, maxstep=10), freq=norama
@<TRIPOS>ATOM
      1 C          -1.4769   -0.3817   -0.0405 C.2     1  UNL1        0.1164
      2 C          -1.5626    1.1064    0.1958 C.2     1  UNL1        0.1794
      3 O          -2.2501    1.7952   -0.5190 O.2     1  UNL1       -0.3546
      4 C          -0.3741   -1.1157   -0.1622 C.2     1  UNL1       -0.2051
      5 H          -0.4919   -2.1870   -0.2841 H       1  UNL1        0.1725
      6 C           1.0062   -0.6100   -0.1663 C.ar    1  UNL1        0.1643
      7 C           1.9996   -1.3501    0.4769 C.ar    1  UNL1       -0.2185
      8 C           3.3064   -0.8945    0.5099 C.ar    1  UNL1       -0.1286
      9 C           3.6446    0.2984   -0.1158 C.ar    1  UNL1       -0.1502
     10 C           2.6705    1.0270   -0.7821 C.ar    1  UNL1       -0.1125
     11 C           1.3611    0.5738   -0.8127 C.ar    1  UNL1       -0.2565
     12 H           1.7389   -2.2820    0.9639 H       1  UNL1        0.1461
     13 H           4.0645   -1.4729    1.0222 H       1  UNL1        0.1484
     14 H           4.6674    0.6518   -0.0942 H       1  UNL1        0.1496
     15 H           2.9311    1.9469   -1.2894 H       1  UNL1        0.1498
     16 H           0.6150    1.1341   -1.3626 H       1  UNL1        0.1709
     17 CL         -3.0411   -1.1357   -0.1767 Cl      1  UNL1       -0.0974
     18 C          -0.8565    1.6500    1.4038 C.3     1  UNL1       -0.3444
     19 H          -1.5115    1.4631    2.2604 H       1  UNL1        0.1642
     20 H           0.0878    1.1476    1.5988 H       1  UNL1        0.1625
     21 H          -0.7100    2.7228    1.3004 H       1  UNL1        0.1437
@<TRIPOS>BOND
     1    16    11    1
     2    15    10    1
     3    11    10   ar
     4    11     6   ar
     5    10     9   ar
     6     3     2    2
     7     5     4    1
     8    17     1    1
     9     6     4    1
    10     6     7   ar
    11     4     1    2
    12     9    14    1
    13     9     8   ar
    14     1     2    1
    15     2    18    1
    16     7     8   ar
    17     7    12    1
    18     8    13    1
    19    21    18    1
    20    18    20    1
    21    18    19    1
