@<TRIPOS>MOLECULE
GS-282-0.out
 24 24 0 0 0
SMALL
MULLIKEN_CHARGES
****
Gaussian 16 # wB97XD def2tzvp, opt=(calcfc, maxcycles=50, maxstep=10), freq=norama
@<TRIPOS>ATOM
      1 C           0.8947   -0.2800   -0.0963 C.2     1  UNL1       -0.0408
      2 C           1.6562    0.9885    0.1370 C.2     1  UNL1        0.2292
      3 O           2.6848    1.2383   -0.4572 O.2     1  UNL1       -0.3996
      4 C           1.5174   -1.4529   -0.2548 C.2     1  UNL1       -0.1092
      5 H           0.8797   -2.3223   -0.3938 H       1  UNL1        0.1582
      6 C           2.9788   -1.7468   -0.2405 C.3     1  UNL1       -0.3394
      7 H           3.1681   -2.6306    0.3722 H       1  UNL1        0.1338
      8 H           3.3181   -1.9880   -1.2518 H       1  UNL1        0.1421
      9 H           3.5782   -0.9170    0.1241 H       1  UNL1        0.1324
     10 C          -0.5902   -0.2022   -0.0798 C.ar    1  UNL1        0.1984
     11 C          -1.3506   -1.0759    0.6951 C.ar    1  UNL1       -0.2641
     12 C          -2.7361   -1.0122    0.6826 C.ar    1  UNL1       -0.1293
     13 C          -3.3839   -0.0676   -0.1000 C.ar    1  UNL1       -0.1525
     14 C          -2.6373    0.8128   -0.8709 C.ar    1  UNL1       -0.1282
     15 C          -1.2533    0.7461   -0.8587 C.ar    1  UNL1       -0.2683
     16 H          -0.8498   -1.8039    1.3215 H       1  UNL1        0.1576
     17 H          -3.3103   -1.6978    1.2930 H       1  UNL1        0.1443
     18 H          -4.4651   -0.0151   -0.1071 H       1  UNL1        0.1459
     19 H          -3.1342    1.5516   -1.4870 H       1  UNL1        0.1450
     20 H          -0.6802    1.4317   -1.4726 H       1  UNL1        0.1649
     21 C           1.0990    1.9445    1.1608 C.3     1  UNL1       -0.3711
     22 H           0.6822    1.4091    2.0146 H       1  UNL1        0.1496
     23 H           1.8807    2.6292    1.4822 H       1  UNL1        0.1421
     24 H           0.2862    2.5221    0.7154 H       1  UNL1        0.1589
@<TRIPOS>BOND
     1    19    14    1
     2    20    15    1
     3     8     6    1
     4    14    15   ar
     5    14    13   ar
     6    15    10   ar
     7     3     2    2
     8     5     4    1
     9     4     6    1
    10     4     1    2
    11     6     9    1
    12     6     7    1
    13    18    13    1
    14    13    12   ar
    15     1    10    1
    16     1     2    1
    17    10    11   ar
    18     2    21    1
    19    12    11   ar
    20    12    17    1
    21    11    16    1
    22    24    21    1
    23    21    23    1
    24    21    22    1
