@<TRIPOS>MOLECULE
GS-236-0.out
 22 22 0 0 0
SMALL
MULLIKEN_CHARGES
****
Gaussian 16 # wB97XD def2tzvp, opt=(calcfc, maxcycles=50, maxstep=10), freq=norama
@<TRIPOS>ATOM
      1 C           1.3900   -0.7110    0.0288 C.2     1  UNL1        0.0950
      2 C           1.5609    0.7771    0.0795 C.2     1  UNL1        0.3303
      3 O           2.2748    1.3413    0.8673 O.2     1  UNL1       -0.3873
      4 C           0.2390   -1.3760    0.0141 C.2     1  UNL1       -0.2285
      5 H           0.2926   -2.4572   -0.0544 H       1  UNL1        0.1731
      6 C          -1.1125   -0.8015    0.0927 C.ar    1  UNL1        0.2366
      7 C          -2.1323   -1.3815   -0.6616 C.ar    1  UNL1       -0.2348
      8 C          -3.4181   -0.8674   -0.6220 C.ar    1  UNL1       -0.1299
      9 C          -3.7075    0.2212    0.1887 C.ar    1  UNL1       -0.1475
     10 C          -2.7062    0.7867    0.9658 C.ar    1  UNL1       -0.1341
     11 C          -1.4191    0.2772    0.9217 C.ar    1  UNL1       -0.2499
     12 H          -1.9110   -2.2350   -1.2911 H       1  UNL1        0.1458
     13 H          -4.1968   -1.3210   -1.2215 H       1  UNL1        0.1476
     14 H          -4.7133    0.6196    0.2251 H       1  UNL1        0.1487
     15 H          -2.9295    1.6224    1.6163 H       1  UNL1        0.1482
     16 H          -0.6542    0.7084    1.5560 H       1  UNL1        0.1716
     17 CL          2.9031   -1.5645    0.0363 Cl      1  UNL1       -0.0875
     18 O           0.8460    1.3794   -0.8570 O.3     1  UNL1       -0.2492
     19 C           0.8506    2.8113   -0.8396 C.3     1  UNL1       -0.1969
     20 H           1.8621    3.1889   -0.9798 H       1  UNL1        0.1484
     21 H           0.2127    3.1146   -1.6636 H       1  UNL1        0.1532
     22 H           0.4495    3.1744    0.1061 H       1  UNL1        0.1471
@<TRIPOS>BOND
     1    21    19    1
     2    12     7    1
     3    13     8    1
     4    20    19    1
     5    18    19    1
     6    18     2    1
     7    19    22    1
     8     7     8   ar
     9     7     6   ar
    10     8     9   ar
    11     5     4    1
    12     4     1    2
    13     4     6    1
    14     1    17    1
    15     1     2    1
    16     2     3    2
    17     6    11   ar
    18     9    14    1
    19     9    10   ar
    20    11    10   ar
    21    11    16    1
    22    10    15    1
