@<TRIPOS>MOLECULE
GS-273-0.out
 8 7 0 0 0
SMALL
MULLIKEN_CHARGES
****
Gaussian 16 # wB97XD def2tzvp, opt=(calcfc, maxcycles=50, maxstep=10), freq=norama
@<TRIPOS>ATOM
      1 C           0.0050    0.3006    0.0000 C.2     1  UNL1        0.0486
      2 C          -1.0915   -0.7093   -0.0000 C.2     1  UNL1        0.1624
      3 O          -2.2567   -0.4119    0.0000 O.2     1  UNL1       -0.3444
      4 C          -0.2159    1.6055   -0.0000 C.2     1  UNL1       -0.2592
      5 H           0.5857    2.3302   -0.0000 H       1  UNL1        0.1859
      6 H          -1.2394    1.9576   -0.0000 H       1  UNL1        0.1793
      7 CL          1.6048   -0.3771    0.0000 Cl      1  UNL1       -0.0937
      8 H          -0.7599   -1.7614   -0.0000 H       1  UNL1        0.1210
@<TRIPOS>BOND
     1     8     2    1
     2     1     2    1
     3     1     4    2
     4     1     7    1
     5     2     3    2
     6     4     5    1
     7     4     6    1
