@<TRIPOS>MOLECULE
GS-253-0.out
 13 12 0 0 0
SMALL
MULLIKEN_CHARGES
****
Gaussian 16 # wB97XD def2tzvp, opt=(calcfc, maxcycles=50, maxstep=10), freq=norama
@<TRIPOS>ATOM
      1 C           1.3367   -0.6445   -0.0000 C.2     1  UNL1       -0.2273
      2 C           0.0565    0.1221   -0.0000 C.2     1  UNL1        0.4028
      3 O           0.0127    1.3480   -0.0000 O.2     1  UNL1       -0.5103
      4 C           2.5096   -0.0310    0.0000 C.2     1  UNL1       -0.2680
      5 H           3.4376   -0.5876    0.0001 H       1  UNL1        0.1636
      6 H           2.5648    1.0511    0.0001 H       1  UNL1        0.1552
      7 H           1.2767   -1.7275   -0.0001 H       1  UNL1        0.1519
      8 N          -1.0540   -0.6360    0.0000 N.am    1  UNL1       -0.3130
      9 C          -2.3797   -0.0605    0.0000 C.3     1  UNL1       -0.2486
     10 H          -0.9614   -1.6358   -0.0001 H       1  UNL1        0.2735
     11 H          -3.1095   -0.8662    0.0001 H       1  UNL1        0.1474
     12 H          -2.5355    0.5592    0.8845 H       1  UNL1        0.1363
     13 H          -2.5356    0.5591   -0.8844 H       1  UNL1        0.1363
@<TRIPOS>BOND
     1    13     9    1
     2     7     1    1
     3    10     8    1
     4     1     2    1
     5     1     4    2
     6     3     2    2
     7     2     8   am
     8     9     8    1
     9     9    11    1
    10     9    12    1
    11     4     5    1
    12     4     6    1
