@<TRIPOS>MOLECULE
GS-299-0.out
 16 15 0 0 0
SMALL
MULLIKEN_CHARGES
****
Gaussian 16 # wB97XD def2tzvp, opt=(calcfc, maxcycles=50, maxstep=10), freq=norama
@<TRIPOS>ATOM
      1 C          -0.0617    0.6820    0.0817 C.2     1  UNL1       -0.0480
      2 C           0.8531   -0.4994   -0.0758 C.2     1  UNL1        0.3012
      3 O           1.7622   -0.4947   -0.8967 O.2     1  UNL1       -0.4762
      4 C          -1.3852    0.5927   -0.0302 C.2     1  UNL1       -0.1433
      5 H          -1.9462    1.5186    0.0693 H       1  UNL1        0.1371
      6 C          -2.2165   -0.6183   -0.3145 C.3     1  UNL1       -0.3573
      7 H          -2.8363   -0.8696    0.5506 H       1  UNL1        0.1410
      8 H          -2.9006   -0.4110   -1.1401 H       1  UNL1        0.1358
      9 H          -1.6227   -1.4933   -0.5732 H       1  UNL1        0.1330
     10 C           0.6527    1.9856    0.2988 C.3     1  UNL1       -0.3398
     11 H           1.3278    2.1940   -0.5332 H       1  UNL1        0.1325
     12 H          -0.0576    2.8069    0.3868 H       1  UNL1        0.1276
     13 H           1.2603    1.9538    1.2068 H       1  UNL1        0.1323
     14 N           0.6401   -1.5344    0.7568 N.am    1  UNL1       -0.4501
     15 H           1.2279   -2.3483    0.6978 H       1  UNL1        0.2774
     16 H          -0.0851   -1.5083    1.4500 H       1  UNL1        0.2970
@<TRIPOS>BOND
     1     8     6    1
     2     3     2    2
     3     9     6    1
     4    11    10    1
     5     6     4    1
     6     6     7    1
     7     2     1    1
     8     2    14   am
     9     4     5    1
    10     4     1    2
    11     1    10    1
    12    10    12    1
    13    10    13    1
    14    15    14    1
    15    14    16    1
