@<TRIPOS>MOLECULE
GS-203-0.out
 30 31 0 0 0
SMALL
MULLIKEN_CHARGES
****
Gaussian 16 # wB97XD def2tzvp, opt=(calcfc, maxcycles=50, maxstep=10), freq=norama
@<TRIPOS>ATOM
      1 C          -0.4908    0.1754   -0.0163 C.2     1  UNL1        0.0406
      2 C          -0.1666    1.5942    0.3769 C.2     1  UNL1        0.2358
      3 O          -0.2881    2.5291   -0.4029 O.2     1  UNL1       -0.4534
      4 C           0.4570   -0.7264   -0.2865 C.2     1  UNL1       -0.1978
      5 H           0.1232   -1.7246   -0.5544 H       1  UNL1        0.1687
      6 C           1.9191   -0.5662   -0.2489 C.ar    1  UNL1        0.2147
      7 C           2.5731    0.6273   -0.5605 C.ar    1  UNL1       -0.2224
      8 C           3.9551    0.7116   -0.4997 C.ar    1  UNL1       -0.1512
      9 C           4.7108   -0.3929   -0.1326 C.ar    1  UNL1       -0.1421
     10 C           4.0744   -1.5910    0.1602 C.ar    1  UNL1       -0.1449
     11 C           2.6937   -1.6773    0.0930 C.ar    1  UNL1       -0.2414
     12 H           2.0032    1.4912   -0.8761 H       1  UNL1        0.1596
     13 H           4.4447    1.6445   -0.7496 H       1  UNL1        0.1446
     14 H           5.7902   -0.3236   -0.0869 H       1  UNL1        0.1464
     15 H           4.6549   -2.4620    0.4369 H       1  UNL1        0.1445
     16 H           2.2025   -2.6171    0.3166 H       1  UNL1        0.1412
     17 C          -1.9353   -0.1651   -0.0624 C.ar    1  UNL1        0.1862
     18 C          -2.8793    0.7517   -0.5279 C.ar    1  UNL1       -0.2443
     19 C          -4.2238    0.4172   -0.5786 C.ar    1  UNL1       -0.1385
     20 C          -4.6518   -0.8335   -0.1584 C.ar    1  UNL1       -0.1466
     21 C          -3.7237   -1.7475    0.3203 C.ar    1  UNL1       -0.1413
     22 C          -2.3799   -1.4151    0.3728 C.ar    1  UNL1       -0.2632
     23 H          -2.5540    1.7268   -0.8650 H       1  UNL1        0.1524
     24 H          -4.9397    1.1389   -0.9512 H       1  UNL1        0.1438
     25 H          -5.7023   -1.0920   -0.1959 H       1  UNL1        0.1457
     26 H          -4.0479   -2.7208    0.6667 H       1  UNL1        0.1446
     27 H          -1.6701   -2.1262    0.7761 H       1  UNL1        0.1628
     28 N           0.2270    1.7481    1.6502 N.am    1  UNL1       -0.4192
     29 H           0.4735    2.6633    1.9873 H       1  UNL1        0.2786
     30 H           0.3441    0.9584    2.2590 H       1  UNL1        0.2960
@<TRIPOS>BOND
     1    24    19    1
     2    12     7    1
     3    23    18    1
     4    13     8    1
     5    19    18   ar
     6    19    20   ar
     7     7     8   ar
     8     7     6   ar
     9     5     4    1
    10    18    17   ar
    11     8     9   ar
    12     3     2    2
    13     4     6    1
    14     4     1    2
    15     6    11   ar
    16    25    20    1
    17    20    21   ar
    18     9    14    1
    19     9    10   ar
    20    17     1    1
    21    17    22   ar
    22     1     2    1
    23    11    10   ar
    24    11    16    1
    25    10    15    1
    26    21    22   ar
    27    21    26    1
    28    22    27    1
    29     2    28   am
    30    28    29    1
    31    28    30    1
