@<TRIPOS>MOLECULE
GS-289-0.out
 11 10 0 0 0
SMALL
MULLIKEN_CHARGES
****
Gaussian 16 # wB97XD def2tzvp, opt=(calcfc, maxcycles=50, maxstep=10), freq=norama
@<TRIPOS>ATOM
      1 C           0.1644    0.7562    0.0000 C.2     1  UNL1       -0.2026
      2 C           1.1051   -0.3596    0.0000 C.2     1  UNL1        0.1884
      3 O           2.3104   -0.2149   -0.0000 O.2     1  UNL1       -0.4000
      4 C          -1.1672    0.6340   -0.0000 C.2     1  UNL1       -0.0878
      5 H          -1.7429    1.5554   -0.0000 H       1  UNL1        0.1575
      6 C          -1.9908   -0.6074   -0.0000 C.3     1  UNL1       -0.3081
      7 H          -2.6451   -0.6073    0.8750 H       1  UNL1        0.1455
      8 H          -2.6451   -0.6073   -0.8750 H       1  UNL1        0.1455
      9 H          -1.4120   -1.5272   -0.0000 H       1  UNL1        0.1179
     10 H           0.6143    1.7430    0.0000 H       1  UNL1        0.1495
     11 H           0.6786   -1.3766    0.0000 H       1  UNL1        0.0941
@<TRIPOS>BOND
     1     8     6    1
     2     9     6    1
     3     1     2    1
     4     1     4    2
     5     1    10    1
     6     2     3    2
     7     2    11    1
     8     4     5    1
     9     4     6    1
    10     6     7    1
