@<TRIPOS>MOLECULE
GS-26-0.out
 31 32 0 0 0
SMALL
MULLIKEN_CHARGES
****
Gaussian 16 # wB97XD def2tzvp, opt=(calcfc, maxcycles=70, maxstep=10), freq=norama
@<TRIPOS>ATOM
      1 C           0.1182   -1.2221    0.0258 C.2     1  UNL1       -0.0337
      2 C          -0.9505   -2.2830    0.1316 C.2     1  UNL1        0.1779
      3 O          -1.0218   -3.1667   -0.6888 O.2     1  UNL1       -0.3593
      4 C          -0.0960    0.0968    0.0064 C.2     1  UNL1        0.1411
      5 C           0.9854    1.1146   -0.0145 C.ar    1  UNL1        0.1188
      6 C           1.0621    2.0181   -1.0712 C.ar    1  UNL1       -0.2124
      7 C           2.0501    2.9895   -1.0920 C.ar    1  UNL1       -0.1516
      8 C           2.9557    3.0830   -0.0443 C.ar    1  UNL1       -0.1295
      9 C           2.8712    2.1989    1.0217 C.ar    1  UNL1       -0.1278
     10 C           1.8937    1.2161    1.0351 C.ar    1  UNL1       -0.2485
     11 H           0.3463    1.9554   -1.8819 H       1  UNL1        0.1549
     12 H           2.1088    3.6788   -1.9246 H       1  UNL1        0.1454
     13 H           3.7222    3.8474   -0.0561 H       1  UNL1        0.1478
     14 H           3.5678    2.2741    1.8469 H       1  UNL1        0.1457
     15 H           1.8278    0.5274    1.8679 H       1  UNL1        0.1601
     16 C          -1.4833    0.6278   -0.0333 C.ar    1  UNL1        0.0496
     17 C          -1.8703    1.6248    0.8625 C.ar    1  UNL1       -0.1882
     18 C          -3.1671    2.1070    0.8551 C.ar    1  UNL1       -0.1498
     19 C          -4.0892    1.6168   -0.0619 C.ar    1  UNL1       -0.1213
     20 C          -3.7049    0.6468   -0.9738 C.ar    1  UNL1       -0.1414
     21 C          -2.4076    0.1550   -0.9613 C.ar    1  UNL1       -0.2127
     22 H          -1.1526    2.0107    1.5759 H       1  UNL1        0.1604
     23 H          -3.4609    2.8693    1.5653 H       1  UNL1        0.1469
     24 H          -5.1018    1.9992   -0.0698 H       1  UNL1        0.1492
     25 H          -4.4129    0.2733   -1.7024 H       1  UNL1        0.1474
     26 H          -2.1061   -0.5884   -1.6883 H       1  UNL1        0.1666
     27 BR          1.8527   -1.9768   -0.1501 Br      1  UNL1       -0.0502
     28 C          -1.8262   -2.2490    1.3518 C.3     1  UNL1       -0.3528
     29 H          -1.2436   -2.6796    2.1720 H       1  UNL1        0.1619
     30 H          -2.0991   -1.2369    1.6415 H       1  UNL1        0.1623
     31 H          -2.7134   -2.8573    1.1911 H       1  UNL1        0.1433
@<TRIPOS>BOND
     1    12     7    1
     2    11     6    1
     3    25    20    1
     4    26    21    1
     5     7     6   ar
     6     7     8   ar
     7     6     5   ar
     8    20    21   ar
     9    20    19   ar
    10    21    16   ar
    11     3     2    2
    12    27     1    1
    13    24    19    1
    14    19    18   ar
    15    13     8    1
    16     8     9   ar
    17    16     4    1
    18    16    17   ar
    19     5     4    1
    20     5    10   ar
    21     4     1    2
    22     1     2    1
    23     2    28    1
    24    18    17   ar
    25    18    23    1
    26    17    22    1
    27     9    10   ar
    28     9    14    1
    29    10    15    1
    30    31    28    1
    31    28    30    1
    32    28    29    1
