@<TRIPOS>MOLECULE
GS-269-0.out
 13 12 0 0 0
SMALL
MULLIKEN_CHARGES
****
Gaussian 16 # wB97XD def2tzvp, opt=(calcfc, maxcycles=50, maxstep=10), freq=norama
@<TRIPOS>ATOM
      1 C          -0.2802    0.8559    0.0001 C.2     1  UNL1       -0.0430
      2 C           1.1904    0.5154   -0.0000 C.2     1  UNL1        0.3748
      3 O           2.0166    1.4182   -0.0004 O.2     1  UNL1       -0.4883
      4 C          -0.6875    2.1126    0.0003 C.2     1  UNL1       -0.2644
      5 H          -1.7331    2.3846    0.0004 H       1  UNL1        0.1807
      6 H           0.0577    2.8972    0.0004 H       1  UNL1        0.1754
      7 BR         -1.5587   -0.5567   -0.0001 Br      1  UNL1       -0.0836
      8 N           1.5270   -0.7779    0.0005 N.am    1  UNL1       -0.2947
      9 C           2.9110   -1.1980    0.0000 C.3     1  UNL1       -0.2525
     10 H           0.8052   -1.4769    0.0004 H       1  UNL1        0.2643
     11 H           2.9431   -2.2842    0.0002 H       1  UNL1        0.1501
     12 H           3.4282   -0.8257   -0.8852 H       1  UNL1        0.1406
     13 H           3.4290   -0.8253    0.8846 H       1  UNL1        0.1406
@<TRIPOS>BOND
     1    12     9    1
     2     3     2    2
     3     7     1    1
     4     2     1    1
     5     2     8   am
     6     9    11    1
     7     9     8    1
     8     9    13    1
     9     1     4    2
    10     4     6    1
    11     4     5    1
    12    10     8    1
