@<TRIPOS>MOLECULE
GS-291-0.out
 13 12 0 0 0
SMALL
MULLIKEN_CHARGES
****
Gaussian 16 # wB97XD def2tzvp, opt=(calcfc, maxcycles=50, maxstep=10), freq=norama
@<TRIPOS>ATOM
      1 C           0.1020   -0.9292   -0.0518 C.2     1  UNL1       -0.2726
      2 C          -0.9215    0.1489   -0.0190 C.2     1  UNL1        0.3782
      3 O          -0.6757    1.3495   -0.0636 O.2     1  UNL1       -0.4982
      4 C           1.4252   -0.7740   -0.0199 C.2     1  UNL1       -0.0991
      5 H           2.0113   -1.6888   -0.0515 H       1  UNL1        0.1490
      6 C           2.2287    0.4787    0.0590 C.3     1  UNL1       -0.3228
      7 H           2.9109    0.4195    0.9108 H       1  UNL1        0.1325
      8 H           2.8568    0.5640   -0.8322 H       1  UNL1        0.1345
      9 H           1.6087    1.3646    0.1455 H       1  UNL1        0.1405
     10 H          -0.2858   -1.9408   -0.0999 H       1  UNL1        0.1503
     11 N          -2.1922   -0.3051    0.0600 N.am    1  UNL1       -0.4554
     12 H          -2.9465    0.3580    0.0938 H       1  UNL1        0.2756
     13 H          -2.4104   -1.2829    0.1127 H       1  UNL1        0.2874
@<TRIPOS>BOND
     1     8     6    1
     2    10     1    1
     3     3     2    2
     4     1     4    2
     5     1     2    1
     6     5     4    1
     7     4     6    1
     8     2    11   am
     9     6     9    1
    10     6     7    1
    11    11    12    1
    12    11    13    1
