@<TRIPOS>MOLECULE
GS-206-1.out
 36 37 0 0 0
SMALL
MULLIKEN_CHARGES
****
Gaussian 16 # wB97XD def2tzvp, opt=(calcfc, maxcycles=70, maxstep=1), freq=noraman
@<TRIPOS>ATOM
      1 C           0.5763   -0.1326   -0.2986 C.2     1  UNL1        0.0454
      2 C           0.1874    1.3216   -0.3494 C.2     1  UNL1        0.1915
      3 O           0.3049    1.9419   -1.4049 O.2     1  UNL1       -0.4838
      4 C          -0.3324   -1.1101   -0.3559 C.2     1  UNL1       -0.2172
      5 H           0.0373   -2.1310   -0.3556 H       1  UNL1        0.1662
      6 C          -1.7986   -0.9939   -0.3451 C.ar    1  UNL1        0.2273
      7 C          -2.5017    0.0777   -0.9005 C.ar    1  UNL1       -0.2181
      8 C          -3.8841    0.1342   -0.8171 C.ar    1  UNL1       -0.1549
      9 C          -4.5930   -0.8783   -0.1866 C.ar    1  UNL1       -0.1430
     10 C          -3.9089   -1.9605    0.3489 C.ar    1  UNL1       -0.1450
     11 C          -2.5280   -2.0196    0.2621 C.ar    1  UNL1       -0.2399
     12 H          -1.9732    0.8625   -1.4245 H       1  UNL1        0.1591
     13 H          -4.4108    0.9718   -1.2568 H       1  UNL1        0.1443
     14 H          -5.6727   -0.8302   -0.1237 H       1  UNL1        0.1459
     15 H          -4.4520   -2.7623    0.8332 H       1  UNL1        0.1442
     16 H          -1.9995   -2.8682    0.6807 H       1  UNL1        0.1407
     17 C           2.0295   -0.4138   -0.1953 C.ar    1  UNL1        0.1630
     18 C           2.4832   -1.5024    0.5528 C.ar    1  UNL1       -0.2578
     19 C           3.8369   -1.7789    0.6553 C.ar    1  UNL1       -0.1503
     20 C           4.7659   -0.9658    0.0219 C.ar    1  UNL1       -0.1392
     21 C           4.3284    0.1294   -0.7087 C.ar    1  UNL1       -0.1433
     22 C           2.9744    0.4072   -0.8134 C.ar    1  UNL1       -0.2483
     23 H           1.7711   -2.1261    1.0783 H       1  UNL1        0.1647
     24 H           4.1669   -2.6259    1.2434 H       1  UNL1        0.1439
     25 H           5.8239   -1.1792    0.1050 H       1  UNL1        0.1456
     26 H           5.0452    0.7730   -1.2031 H       1  UNL1        0.1433
     27 H           2.6423    1.2588   -1.3919 H       1  UNL1        0.1515
     28 N          -0.2672    1.8785    0.7870 N.am    1  UNL1       -0.0617
     29 C          -0.7720    3.2369    0.7778 C.3     1  UNL1       -0.2807
     30 C          -0.4324    1.1614    2.0366 C.3     1  UNL1       -0.3013
     31 H          -0.6495    3.6606   -0.2135 H       1  UNL1        0.1520
     32 H          -1.8318    3.2390    1.0451 H       1  UNL1        0.1402
     33 H          -0.2281    3.8446    1.5033 H       1  UNL1        0.1465
     34 H           0.1947    0.2757    2.0631 H       1  UNL1        0.1678
     35 H          -0.1430    1.8155    2.8595 H       1  UNL1        0.1508
     36 H          -1.4748    0.8623    2.1777 H       1  UNL1        0.1506
@<TRIPOS>BOND
     1    12     7    1
     2     3     2    2
     3    27    22    1
     4    13     8    1
     5    26    21    1
     6     7     8   ar
     7     7     6   ar
     8     8     9   ar
     9    22    21   ar
    10    22    17   ar
    11    21    20   ar
    12     4     5    1
    13     4     6    1
    14     4     1    2
    15     2     1    1
    16     2    28   am
    17     6    11   ar
    18     1    17    1
    19    31    29    1
    20    17    18   ar
    21     9    14    1
    22     9    10   ar
    23    20    25    1
    24    20    19   ar
    25    11    10   ar
    26    11    16    1
    27    10    15    1
    28    18    19   ar
    29    18    23    1
    30    19    24    1
    31    29    28    1
    32    29    32    1
    33    29    33    1
    34    28    30    1
    35    30    34    1
    36    30    36    1
    37    30    35    1
