@<TRIPOS>MOLECULE
GS-217-0.out
 21 21 0 0 0
SMALL
MULLIKEN_CHARGES
****
Gaussian 16 # wB97XD def2tzvp, opt=(calcfc, maxcycles=50, maxstep=10), freq=norama
@<TRIPOS>ATOM
      1 C          -1.8854   -0.4124    0.0947 C.2     1  UNL1        0.0435
      2 C          -1.9457    0.9396   -0.4855 C.2     1  UNL1        0.1094
      3 O          -2.9733    1.5736   -0.5968 O.2     1  UNL1       -0.3870
      4 C          -0.7100   -1.0242    0.3088 C.2     1  UNL1       -0.1754
      5 H          -0.7432   -2.0662    0.6172 H       1  UNL1        0.1646
      6 C           0.6457   -0.4689    0.1785 C.ar    1  UNL1        0.2288
      7 C           0.9895    0.7938    0.6630 C.ar    1  UNL1       -0.3027
      8 C           2.2829    1.2749    0.5270 C.ar    1  UNL1       -0.1163
      9 C           3.2543    0.4992   -0.0873 C.ar    1  UNL1       -0.1474
     10 C           2.9310   -0.7697   -0.5508 C.ar    1  UNL1       -0.1329
     11 C           1.6421   -1.2535   -0.4074 C.ar    1  UNL1       -0.2343
     12 H           0.2472    1.3919    1.1765 H       1  UNL1        0.1829
     13 H           2.5329    2.2554    0.9116 H       1  UNL1        0.1481
     14 H           4.2641    0.8749   -0.1919 H       1  UNL1        0.1487
     15 H           3.6876   -1.3857   -1.0197 H       1  UNL1        0.1471
     16 H           1.3959   -2.2469   -0.7632 H       1  UNL1        0.1455
     17 C          -3.1991   -1.0830    0.3620 C.3     1  UNL1       -0.3622
     18 H          -3.7662   -0.5233    1.1087 H       1  UNL1        0.1361
     19 H          -3.8115   -1.1168   -0.5409 H       1  UNL1        0.1356
     20 H          -3.0529   -2.0983    0.7274 H       1  UNL1        0.1347
     21 H          -0.9986    1.3509   -0.8700 H       1  UNL1        0.1333
@<TRIPOS>BOND
     1    15    10    1
     2    21     2    1
     3    16    11    1
     4     3     2    2
     5    10    11   ar
     6    10     9   ar
     7    19    17    1
     8     2     1    1
     9    11     6   ar
    10    14     9    1
    11     9     8   ar
    12     1     4    2
    13     1    17    1
    14     6     4    1
    15     6     7   ar
    16     4     5    1
    17    17    20    1
    18    17    18    1
    19     8     7   ar
    20     8    13    1
    21     7    12    1
