@<TRIPOS>MOLECULE
GS-284-0.out
 25 25 0 0 0
SMALL
MULLIKEN_CHARGES
****
Gaussian 16 # wB97XD def2tzvp, opt=(calcfc, maxcycles=50, maxstep=10), freq=norama
@<TRIPOS>ATOM
      1 C           0.6046    0.6930    0.1023 C.2     1  UNL1       -0.0367
      2 C           1.6042   -0.4169    0.1285 C.2     1  UNL1        0.3741
      3 O           2.6184   -0.4300    0.7845 O.2     1  UNL1       -0.4231
      4 C           0.9992    1.9694    0.1054 C.2     1  UNL1       -0.0982
      5 H           0.2109    2.7170    0.1045 H       1  UNL1        0.1590
      6 C           2.3838    2.5201    0.0890 C.3     1  UNL1       -0.3470
      7 H           2.4579    3.2944   -0.6776 H       1  UNL1        0.1373
      8 H           2.6005    3.0052    1.0448 H       1  UNL1        0.1432
      9 H           3.1435    1.7638   -0.0878 H       1  UNL1        0.1340
     10 C          -0.8340    0.3240    0.0667 C.ar    1  UNL1        0.1950
     11 C          -1.7265    0.9942   -0.7673 C.ar    1  UNL1       -0.2688
     12 C          -3.0766    0.6753   -0.7641 C.ar    1  UNL1       -0.1321
     13 C          -3.5551   -0.3256    0.0680 C.ar    1  UNL1       -0.1533
     14 C          -2.6733   -1.0076    0.8959 C.ar    1  UNL1       -0.1372
     15 C          -1.3258   -0.6872    0.8925 C.ar    1  UNL1       -0.2414
     16 H          -1.3582    1.7628   -1.4355 H       1  UNL1        0.1584
     17 H          -3.7539    1.2052   -1.4219 H       1  UNL1        0.1441
     18 H          -4.6078   -0.5777    0.0681 H       1  UNL1        0.1454
     19 H          -3.0368   -1.7910    1.5489 H       1  UNL1        0.1444
     20 H          -0.6494   -1.2244    1.5470 H       1  UNL1        0.1485
     21 O           1.2467   -1.4179   -0.6759 O.3     1  UNL1       -0.2697
     22 C           2.1171   -2.5497   -0.7117 C.3     1  UNL1       -0.2038
     23 H           1.6577   -3.2526   -1.4003 H       1  UNL1        0.1478
     24 H           3.1048   -2.2608   -1.0690 H       1  UNL1        0.1397
     25 H           2.2047   -2.9932    0.2795 H       1  UNL1        0.1402
@<TRIPOS>BOND
     1    16    11    1
     2    17    12    1
     3    23    22    1
     4    24    22    1
     5    11    12   ar
     6    11    10   ar
     7    12    13   ar
     8    22    21    1
     9    22    25    1
    10     7     6    1
    11    21     2    1
    12     9     6    1
    13    10     1    1
    14    10    15   ar
    15    13    18    1
    16    13    14   ar
    17     6     4    1
    18     6     8    1
    19     1     4    2
    20     1     2    1
    21     5     4    1
    22     2     3    2
    23    15    14   ar
    24    15    20    1
    25    14    19    1
