@<TRIPOS>MOLECULE
GS-221-0.out
 26 26 0 0 0
SMALL
MULLIKEN_CHARGES
****
Gaussian 16 # wB97XD def2tzvp, opt=(calcfc, maxcycles=50, maxstep=10), freq=norama
@<TRIPOS>ATOM
      1 C           1.4997   -1.1423    0.0406 C.2     1  UNL1        0.0496
      2 C           1.8545    0.3150    0.1394 C.2     1  UNL1        0.2609
      3 O           2.5114    0.7497    1.0801 O.2     1  UNL1       -0.4831
      4 C           0.2407   -1.5815    0.0089 C.2     1  UNL1       -0.2351
      5 H           0.0936   -2.6533   -0.0946 H       1  UNL1        0.1502
      6 C          -1.0011   -0.7903    0.0892 C.ar    1  UNL1        0.1608
      7 C          -2.1088   -1.1946   -0.6573 C.ar    1  UNL1       -0.2232
      8 C          -3.2943   -0.4778   -0.6188 C.ar    1  UNL1       -0.1417
      9 C          -3.3993    0.6508    0.1818 C.ar    1  UNL1       -0.1457
     10 C          -2.3131    1.0501    0.9481 C.ar    1  UNL1       -0.1475
     11 C          -1.1272    0.3348    0.9059 C.ar    1  UNL1       -0.2057
     12 H          -2.0342   -2.0778   -1.2812 H       1  UNL1        0.1403
     13 H          -4.1390   -0.8033   -1.2128 H       1  UNL1        0.1438
     14 H          -4.3258    1.2098    0.2171 H       1  UNL1        0.1456
     15 H          -2.3917    1.9186    1.5900 H       1  UNL1        0.1442
     16 H          -0.2969    0.6449    1.5282 H       1  UNL1        0.1574
     17 C           2.6829   -2.0631    0.0165 C.3     1  UNL1       -0.3472
     18 H           3.2787   -1.9339    0.9224 H       1  UNL1        0.1386
     19 H           2.3686   -3.1037   -0.0507 H       1  UNL1        0.1321
     20 H           3.3342   -1.8376   -0.8317 H       1  UNL1        0.1377
     21 N           1.4487    1.0840   -0.8820 N.am    1  UNL1       -0.2789
     22 C           1.6299    2.5180   -0.8861 C.3     1  UNL1       -0.2529
     23 H           0.8651    0.6659   -1.5849 H       1  UNL1        0.2775
     24 H           2.6741    2.7683   -0.7020 H       1  UNL1        0.1382
     25 H           1.3391    2.9048   -1.8596 H       1  UNL1        0.1486
     26 H           1.0188    2.9953   -0.1159 H       1  UNL1        0.1355
@<TRIPOS>BOND
     1    25    22    1
     2    23    21    1
     3    12     7    1
     4    13     8    1
     5    22    21    1
     6    22    24    1
     7    22    26    1
     8    21     2   am
     9    20    17    1
    10     7     8   ar
    11     7     6   ar
    12     8     9   ar
    13     5     4    1
    14    19    17    1
    15     4     1    2
    16     4     6    1
    17    17     1    1
    18    17    18    1
    19     1     2    1
    20     6    11   ar
    21     2     3    2
    22     9    14    1
    23     9    10   ar
    24    11    10   ar
    25    11    16    1
    26    10    15    1
