@<TRIPOS>MOLECULE
GS-244-0.out
 22 22 0 0 0
SMALL
MULLIKEN_CHARGES
****
Gaussian 16 # wB97XD def2tzvp, opt=(calcfc, maxcycles=50, maxstep=10), freq=norama
@<TRIPOS>ATOM
      1 C           0.6164    1.0543    0.1802 C.2     1  UNL1       -0.0327
      2 C           1.8693    0.2375    0.0781 C.2     1  UNL1        0.4163
      3 O           2.9645    0.6245    0.4076 O.2     1  UNL1       -0.4289
      4 C           0.7586    2.3686    0.3266 C.2     1  UNL1       -0.2614
      5 H          -0.1018    3.0204    0.4049 H       1  UNL1        0.1703
      6 H           1.7423    2.8165    0.3722 H       1  UNL1        0.1623
      7 C          -0.7144    0.4037    0.0926 C.ar    1  UNL1        0.2030
      8 C          -1.6954    0.9260   -0.7469 C.ar    1  UNL1       -0.2671
      9 C          -2.9598    0.3574   -0.7981 C.ar    1  UNL1       -0.1330
     10 C          -3.2603   -0.7427   -0.0095 C.ar    1  UNL1       -0.1499
     11 C          -2.2884   -1.2725    0.8290 C.ar    1  UNL1       -0.1307
     12 C          -1.0250   -0.7070    0.8765 C.ar    1  UNL1       -0.2491
     13 H          -1.4616    1.7779   -1.3735 H       1  UNL1        0.1576
     14 H          -3.7086    0.7731   -1.4603 H       1  UNL1        0.1446
     15 H          -4.2461   -1.1885   -0.0494 H       1  UNL1        0.1461
     16 H          -2.5158   -2.1300    1.4497 H       1  UNL1        0.1449
     17 H          -0.2751   -1.1280    1.5346 H       1  UNL1        0.1470
     18 O           1.6469   -0.9627   -0.4484 O.3     1  UNL1       -0.2665
     19 C           2.7841   -1.8142   -0.5995 C.3     1  UNL1       -0.2025
     20 H           2.4047   -2.7380   -1.0255 H       1  UNL1        0.1480
     21 H           3.5132   -1.3592   -1.2688 H       1  UNL1        0.1407
     22 H           3.2470   -2.0045    0.3679 H       1  UNL1        0.1412
@<TRIPOS>BOND
     1    14     9    1
     2    13     8    1
     3    21    19    1
     4    20    19    1
     5     9     8   ar
     6     9    10   ar
     7     8     7   ar
     8    19    18    1
     9    19    22    1
    10    18     2    1
    11    15    10    1
    12    10    11   ar
    13     2     1    1
    14     2     3    2
    15     7     1    1
    16     7    12   ar
    17     1     4    2
    18     4     6    1
    19     4     5    1
    20    11    12   ar
    21    11    16    1
    22    12    17    1
