@<TRIPOS>MOLECULE
GS-224-0.out
 31 32 0 0 0
SMALL
MULLIKEN_CHARGES
****
Gaussian 16 # wB97XD def2tzvp, opt=(calcfc, maxcycles=50, maxstep=10), freq=norama
@<TRIPOS>ATOM
      1 C          -0.6450    2.1234   -0.2389 C.2     1  UNL1        0.0679
      2 C          -1.4260    1.1053    0.5406 C.2     1  UNL1        0.2232
      3 O          -2.0529    1.4567    1.5215 O.2     1  UNL1       -0.3879
      4 C           0.6596    2.0090   -0.4951 C.2     1  UNL1       -0.2860
      5 H           1.1213    2.7966   -1.0846 H       1  UNL1        0.1513
      6 C           1.5627    0.9219   -0.0839 C.ar    1  UNL1        0.2383
      7 C           2.5287    0.4688   -0.9837 C.ar    1  UNL1       -0.2263
      8 C           3.3693   -0.5811   -0.6533 C.ar    1  UNL1       -0.1370
      9 C           3.2722   -1.1853    0.5933 C.ar    1  UNL1       -0.1433
     10 C           2.3377   -0.7230    1.5083 C.ar    1  UNL1       -0.1492
     11 C           1.4944    0.3254    1.1747 C.ar    1  UNL1       -0.2274
     12 H           2.6071    0.9362   -1.9584 H       1  UNL1        0.1409
     13 H           4.1034   -0.9285   -1.3693 H       1  UNL1        0.1441
     14 H           3.9303   -2.0044    0.8539 H       1  UNL1        0.1459
     15 H           2.2684   -1.1750    2.4897 H       1  UNL1        0.1444
     16 H           0.7863    0.6928    1.9070 H       1  UNL1        0.1666
     17 C          -1.4502    3.3141   -0.6726 C.3     1  UNL1       -0.3504
     18 H          -1.8741    3.8215    0.1960 H       1  UNL1        0.1417
     19 H          -0.8336    4.0206   -1.2264 H       1  UNL1        0.1338
     20 H          -2.2861    3.0078   -1.3066 H       1  UNL1        0.1399
     21 C          -1.4753   -0.3093    0.0679 C.ar    1  UNL1        0.1321
     22 C          -1.9059   -1.2961    0.9526 C.ar    1  UNL1       -0.2195
     23 C          -1.9688   -2.6171    0.5473 C.ar    1  UNL1       -0.1249
     24 C          -1.6174   -2.9611   -0.7525 C.ar    1  UNL1       -0.1257
     25 C          -1.2016   -1.9817   -1.6428 C.ar    1  UNL1       -0.1402
     26 C          -1.1244   -0.6602   -1.2328 C.ar    1  UNL1       -0.2119
     27 H          -2.1766   -1.0156    1.9620 H       1  UNL1        0.1466
     28 H          -2.2901   -3.3817    1.2428 H       1  UNL1        0.1481
     29 H          -1.6680   -3.9948   -1.0706 H       1  UNL1        0.1505
     30 H          -0.9334   -2.2477   -2.6569 H       1  UNL1        0.1476
     31 H          -0.7911    0.1010   -1.9256 H       1  UNL1        0.1669
@<TRIPOS>BOND
     1    30    25    1
     2    12     7    1
     3    31    26    1
     4    25    26   ar
     5    25    24   ar
     6    13     8    1
     7    20    17    1
     8    26    21   ar
     9    19    17    1
    10     5     4    1
    11    29    24    1
    12     7     8   ar
    13     7     6   ar
    14    24    23   ar
    15    17     1    1
    16    17    18    1
    17     8     9   ar
    18     4     1    2
    19     4     6    1
    20     1     2    1
    21     6    11   ar
    22    21     2    1
    23    21    22   ar
    24     2     3    2
    25    23    22   ar
    26    23    28    1
    27     9    14    1
    28     9    10   ar
    29    22    27    1
    30    11    10   ar
    31    11    16    1
    32    10    15    1
