@<TRIPOS>MOLECULE
GS-239-1.out
 30 31 0 0 0
SMALL
MULLIKEN_CHARGES
****
Gaussian 16 # wB97XD def2tzvp, opt=(calcfc, maxcycles=70, maxstep=1), freq=noraman
@<TRIPOS>ATOM
      1 C          -1.7777   -1.4487   -0.0825 C.2     1  UNL1        0.0746
      2 C          -0.3090   -1.5633    0.2374 C.2     1  UNL1        0.3065
      3 O           0.0907   -2.2919    1.1243 O.2     1  UNL1       -0.4373
      4 C          -2.4872   -0.3256   -0.1504 C.2     1  UNL1       -0.2024
      5 H          -3.5342   -0.4093   -0.4209 H       1  UNL1        0.1723
      6 C          -1.9871    1.0387    0.0949 C.ar    1  UNL1        0.1182
      7 C          -2.4251    2.0726   -0.7326 C.ar    1  UNL1       -0.2092
      8 C          -1.9582    3.3647   -0.5531 C.ar    1  UNL1       -0.1361
      9 C          -1.0604    3.6446    0.4672 C.ar    1  UNL1       -0.1363
     10 C          -0.6399    2.6278    1.3131 C.ar    1  UNL1       -0.1459
     11 C          -1.1024    1.3350    1.1320 C.ar    1  UNL1       -0.1916
     12 H          -3.1271    1.8576   -1.5292 H       1  UNL1        0.1464
     13 H          -2.2985    4.1548   -1.2100 H       1  UNL1        0.1477
     14 H          -0.6976    4.6544    0.6100 H       1  UNL1        0.1491
     15 H           0.0459    2.8425    2.1225 H       1  UNL1        0.1484
     16 H          -0.7847    0.5542    1.8118 H       1  UNL1        0.1623
     17 CL         -2.5436   -2.9892   -0.3230 Cl      1  UNL1       -0.0905
     18 N           0.4723   -0.7922   -0.5565 N.am    1  UNL1       -0.2501
     19 C           1.8319   -0.4717   -0.3793 C.ar    1  UNL1        0.3267
     20 C           2.2759    0.7343   -0.9184 C.ar    1  UNL1       -0.3000
     21 C           3.6024    1.1061   -0.7917 C.ar    1  UNL1       -0.0958
     22 C           4.4984    0.2839   -0.1221 C.ar    1  UNL1       -0.1809
     23 C           4.0527   -0.9152    0.4119 C.ar    1  UNL1       -0.0921
     24 C           2.7265   -1.3042    0.2860 C.ar    1  UNL1       -0.3146
     25 H          -0.0166   -0.2272   -1.2321 H       1  UNL1        0.2791
     26 H           1.5756    1.3833   -1.4310 H       1  UNL1        0.1543
     27 H           3.9345    2.0458   -1.2141 H       1  UNL1        0.1475
     28 H           5.5354    0.5758   -0.0196 H       1  UNL1        0.1452
     29 H           4.7441   -1.5665    0.9314 H       1  UNL1        0.1467
     30 H           2.3881   -2.2411    0.6987 H       1  UNL1        0.1577
@<TRIPOS>BOND
     1    12     7    1
     2    26    20    1
     3    25    18    1
     4    27    21    1
     5    13     8    1
     6    20    21   ar
     7    20    19   ar
     8    21    22   ar
     9     7     8   ar
    10     7     6   ar
    11    18    19    1
    12    18     2   am
    13     8     9   ar
    14     5     4    1
    15    19    24   ar
    16    17     1    1
    17     4     1    2
    18     4     6    1
    19    22    28    1
    20    22    23   ar
    21     1     2    1
    22     6    11   ar
    23     2     3    2
    24    24    23   ar
    25    24    30    1
    26    23    29    1
    27     9    14    1
    28     9    10   ar
    29    11    10   ar
    30    11    16    1
    31    10    15    1
