@<TRIPOS>MOLECULE
GS-211-0.out
 20 20 0 0 0
SMALL
MULLIKEN_CHARGES
****
Gaussian 16 # wb97xd def2tzvp opt=(calcfc, maxcycles=100, maxstep=10) freq=noraman
@<TRIPOS>ATOM
      1 C           1.8654    1.1305   -0.2446 C.2     1  UNL1       -0.1699
      2 C           2.4010   -0.2055    0.1560 C.2     1  UNL1        0.2916
      3 O           3.2717   -0.7517   -0.5098 O.2     1  UNL1       -0.4736
      4 C           0.5920    1.4852   -0.4033 C.2     1  UNL1       -0.1805
      5 H           0.4020    2.5176   -0.6815 H       1  UNL1        0.1629
      6 C          -0.6136    0.6500   -0.2552 C.ar    1  UNL1        0.1596
      7 C          -0.6549   -0.6799   -0.6742 C.ar    1  UNL1       -0.2050
      8 C          -1.8086   -1.4317   -0.5222 C.ar    1  UNL1       -0.1394
      9 C          -2.9409   -0.8665    0.0478 C.ar    1  UNL1       -0.1452
     10 C          -2.9175    0.4609    0.4522 C.ar    1  UNL1       -0.1373
     11 C          -1.7661    1.2150    0.2915 C.ar    1  UNL1       -0.2196
     12 H           0.2161   -1.1251   -1.1385 H       1  UNL1        0.1640
     13 H          -1.8257   -2.4611   -0.8572 H       1  UNL1        0.1460
     14 H          -3.8417   -1.4552    0.1657 H       1  UNL1        0.1474
     15 H          -3.7997    0.9121    0.8883 H       1  UNL1        0.1458
     16 H          -1.7543    2.2536    0.6005 H       1  UNL1        0.1437
     17 H           2.6421    1.8556   -0.4588 H       1  UNL1        0.1665
     18 N           1.9206   -0.7294    1.2969 N.am    1  UNL1       -0.4305
     19 H           2.2201   -1.6454    1.5841 H       1  UNL1        0.2795
     20 H           1.1832   -0.2802    1.8090 H       1  UNL1        0.2940
@<TRIPOS>BOND
     1    12     7    1
     2    13     8    1
     3     5     4    1
     4     7     8   ar
     5     7     6   ar
     6     8     9   ar
     7     3     2    2
     8    17     1    1
     9     4     6    1
    10     4     1    2
    11     6    11   ar
    12     1     2    1
    13     9    14    1
    14     9    10   ar
    15     2    18   am
    16    11    10   ar
    17    11    16    1
    18    10    15    1
    19    18    19    1
    20    18    20    1
