@<TRIPOS>MOLECULE
GS-274-0.out
 11 10 0 0 0
SMALL
MULLIKEN_CHARGES
****
Gaussian 16 # wB97XD def2tzvp, opt=(calcfc, maxcycles=50, maxstep=10), freq=norama
@<TRIPOS>ATOM
      1 C          -0.3139    0.5374    0.0000 C.2     1  UNL1        0.0006
      2 C           1.0862   -0.0249   -0.0000 C.2     1  UNL1        0.2871
      3 O           2.0204    0.7429   -0.0000 O.2     1  UNL1       -0.3828
      4 C          -0.5428    1.8410    0.0000 C.2     1  UNL1       -0.2570
      5 H          -1.5430    2.2501    0.0000 H       1  UNL1        0.1812
      6 H           0.3007    2.5180    0.0000 H       1  UNL1        0.1761
      7 CL         -1.6385   -0.5952   -0.0000 Cl      1  UNL1       -0.0956
      8 C           1.2721   -1.5116    0.0000 C.3     1  UNL1       -0.3738
      9 H           0.7945   -1.9525   -0.8768 H       1  UNL1        0.1607
     10 H           2.3345   -1.7398    0.0000 H       1  UNL1        0.1428
     11 H           0.7945   -1.9525    0.8768 H       1  UNL1        0.1607
@<TRIPOS>BOND
     1     9     8    1
     2     3     2    2
     3     7     1    1
     4     1     2    1
     5     1     4    2
     6     2     8    1
     7     4     5    1
     8     4     6    1
     9     8    10    1
    10     8    11    1
