@<TRIPOS>MOLECULE
GS-271-0.out
 20 20 0 0 0
SMALL
MULLIKEN_CHARGES
****
Gaussian 16 # wB97XD def2tzvp, opt=(calcfc, maxcycles=50, maxstep=10), freq=norama
@<TRIPOS>ATOM
      1 C          -1.9870    0.8195    0.0001 C.2     1  UNL1       -0.0661
      2 C          -0.4989    1.0868    0.0000 C.2     1  UNL1        0.4304
      3 O          -0.1050    2.2392   -0.0000 O.2     1  UNL1       -0.4684
      4 C          -2.8488    1.8214    0.0002 C.2     1  UNL1       -0.2581
      5 H          -3.9178    1.6656    0.0002 H       1  UNL1        0.1824
      6 H          -2.4681    2.8341    0.0002 H       1  UNL1        0.1781
      7 BR         -2.6236   -0.9755   -0.0001 Br      1  UNL1       -0.0745
      8 N           0.3000   -0.0022    0.0000 N.am    1  UNL1       -0.2527
      9 C           1.7048   -0.0685    0.0000 C.ar    1  UNL1        0.3031
     10 C           2.2692   -1.3448    0.0001 C.ar    1  UNL1       -0.2993
     11 C           3.6426   -1.5022    0.0001 C.ar    1  UNL1       -0.0974
     12 C           4.4750   -0.3907   -0.0000 C.ar    1  UNL1       -0.1838
     13 C           3.9123    0.8752   -0.0001 C.ar    1  UNL1       -0.1072
     14 C           2.5349    1.0497   -0.0001 C.ar    1  UNL1       -0.2878
     15 H          -0.1670   -0.8955    0.0001 H       1  UNL1        0.2478
     16 H           1.6252   -2.2164    0.0002 H       1  UNL1        0.1476
     17 H           4.0632   -2.4996    0.0002 H       1  UNL1        0.1479
     18 H           5.5501   -0.5126   -0.0000 H       1  UNL1        0.1450
     19 H           4.5498    1.7504   -0.0002 H       1  UNL1        0.1459
     20 H           2.1076    2.0386   -0.0002 H       1  UNL1        0.1670
@<TRIPOS>BOND
     1    19    13    1
     2    20    14    1
     3    13    14   ar
     4    13    12   ar
     5    14     9   ar
     6     7     1    1
     7     3     2    2
     8    18    12    1
     9    12    11   ar
    10     2     8   am
    11     2     1    1
    12     9     8    1
    13     9    10   ar
    14     8    15    1
    15     1     4    2
    16    11    10   ar
    17    11    17    1
    18    10    16    1
    19     4     5    1
    20     4     6    1
