@<TRIPOS>MOLECULE
GS-218-0.out
 24 24 0 0 0
SMALL
MULLIKEN_CHARGES
****
Gaussian 16 # wB97XD def2tzvp, opt=(calcfc, maxcycles=50, maxstep=10), freq=norama
@<TRIPOS>ATOM
      1 C           1.7368    0.6862   -0.1135 C.2     1  UNL1        0.0727
      2 C           1.9221   -0.7789    0.1656 C.2     1  UNL1        0.1881
      3 O           2.5898   -1.4619   -0.5820 O.2     1  UNL1       -0.3841
      4 C           0.5432    1.2694   -0.2379 C.2     1  UNL1       -0.2318
      5 H           0.5292    2.3448   -0.3940 H       1  UNL1        0.1523
      6 C          -0.7812    0.6282   -0.1984 C.ar    1  UNL1        0.1812
      7 C          -1.8449    1.3031    0.4044 C.ar    1  UNL1       -0.2252
      8 C          -3.1008    0.7247    0.4816 C.ar    1  UNL1       -0.1348
      9 C          -3.3224   -0.5353   -0.0588 C.ar    1  UNL1       -0.1539
     10 C          -2.2816   -1.2051   -0.6847 C.ar    1  UNL1       -0.1209
     11 C          -1.0240   -0.6259   -0.7597 C.ar    1  UNL1       -0.2557
     12 H          -1.6779    2.2873    0.8260 H       1  UNL1        0.1411
     13 H          -3.9103    1.2590    0.9626 H       1  UNL1        0.1450
     14 H          -4.3048   -0.9866   -0.0026 H       1  UNL1        0.1466
     15 H          -2.4500   -2.1790   -1.1266 H       1  UNL1        0.1463
     16 H          -0.2292   -1.1469   -1.2788 H       1  UNL1        0.1653
     17 C           3.0247    1.4456   -0.2561 C.3     1  UNL1       -0.3450
     18 H           3.6392    1.3462    0.6423 H       1  UNL1        0.1390
     19 H           3.6063    1.0460   -1.0892 H       1  UNL1        0.1393
     20 H           2.8367    2.5034   -0.4343 H       1  UNL1        0.1335
     21 C           1.3719   -1.3213    1.4551 C.3     1  UNL1       -0.3499
     22 H           0.3804   -0.9284    1.6717 H       1  UNL1        0.1572
     23 H           1.3610   -2.4092    1.4369 H       1  UNL1        0.1357
     24 H           2.0371   -0.9855    2.2566 H       1  UNL1        0.1581
@<TRIPOS>BOND
     1    16    11    1
     2    15    10    1
     3    19    17    1
     4    11    10   ar
     5    11     6   ar
     6    10     9   ar
     7     3     2    2
     8    20    17    1
     9     5     4    1
    10    17     1    1
    11    17    18    1
    12     4     6    1
    13     4     1    2
    14     6     7   ar
    15     1     2    1
    16     9    14    1
    17     9     8   ar
    18     2    21    1
    19     7     8   ar
    20     7    12    1
    21     8    13    1
    22    23    21    1
    23    21    22    1
    24    21    24    1
