@<TRIPOS>MOLECULE
GS-278-0.out
 16 15 0 0 0
SMALL
MULLIKEN_CHARGES
****
Gaussian 16 # wB97XD def2tzvp, opt=(calcfc, maxcycles=50, maxstep=10), freq=norama
@<TRIPOS>ATOM
      1 C          -1.0305    0.3716    0.3088 C.2     1  UNL1       -0.0197
      2 C           0.3842    0.6961   -0.1085 C.2     1  UNL1        0.3320
      3 O           0.6048    1.7744   -0.6460 O.2     1  UNL1       -0.4819
      4 C          -1.6419    0.9193    1.3402 C.2     1  UNL1       -0.3111
      5 H          -2.6747    0.7039    1.5763 H       1  UNL1        0.1735
      6 H          -1.0988    1.6045    1.9783 H       1  UNL1        0.1733
      7 CL         -1.8480   -0.7285   -0.7691 Cl      1  UNL1       -0.0953
      8 N           1.3220   -0.2365    0.1218 N.am    1  UNL1       -0.1033
      9 C           2.6808   -0.0232   -0.3372 C.3     1  UNL1       -0.2793
     10 C           1.0902   -1.4839    0.8237 C.3     1  UNL1       -0.2947
     11 H           2.7156    0.8586   -0.9687 H       1  UNL1        0.1505
     12 H           3.3515    0.1148    0.5138 H       1  UNL1        0.1473
     13 H           3.0127   -0.8939   -0.9055 H       1  UNL1        0.1430
     14 H           0.1115   -1.4918    1.2935 H       1  UNL1        0.1676
     15 H           1.1645   -2.3293    0.1362 H       1  UNL1        0.1516
     16 H           1.8446   -1.6012    1.6034 H       1  UNL1        0.1465
@<TRIPOS>BOND
     1    11     9    1
     2    13     9    1
     3     7     1    1
     4     3     2    2
     5     9     8    1
     6     9    12    1
     7     2     8   am
     8     2     1    1
     9     8    10    1
    10    15    10    1
    11     1     4    2
    12    10    14    1
    13    10    16    1
    14     4     5    1
    15     4     6    1
