@<TRIPOS>MOLECULE
GS-215-0.out
 30 31 0 0 0
SMALL
MULLIKEN_CHARGES
****
Gaussian 16 # wB97XD def2tzvp, opt=(calcfc, maxcycles=50, maxstep=10), freq=norama
@<TRIPOS>ATOM
      1 C           1.1558    2.5357   -0.3442 C.2     1  UNL1       -0.2123
      2 C          -0.2246    2.0773   -0.0096 C.2     1  UNL1        0.3833
      3 O          -0.9304    2.7295    0.7431 O.2     1  UNL1       -0.4715
      4 C           2.2706    1.8058   -0.3450 C.2     1  UNL1       -0.1475
      5 H           3.1880    2.3094   -0.6345 H       1  UNL1        0.1643
      6 C           2.4209    0.3793   -0.0006 C.ar    1  UNL1        0.1328
      7 C           1.7476   -0.2002    1.0754 C.ar    1  UNL1       -0.2046
      8 C           1.9010   -1.5471    1.3601 C.ar    1  UNL1       -0.1403
      9 C           2.7335   -2.3354    0.5777 C.ar    1  UNL1       -0.1416
     10 C           3.4240   -1.7656   -0.4826 C.ar    1  UNL1       -0.1354
     11 C           3.2764   -0.4163   -0.7626 C.ar    1  UNL1       -0.2209
     12 H           1.1094    0.4099    1.7025 H       1  UNL1        0.1611
     13 H           1.3732   -1.9810    2.1997 H       1  UNL1        0.1475
     14 H           2.8517   -3.3881    0.8004 H       1  UNL1        0.1480
     15 H           4.0825   -2.3721   -1.0911 H       1  UNL1        0.1465
     16 H           3.8206    0.0263   -1.5884 H       1  UNL1        0.1448
     17 H           1.2183    3.5963   -0.5571 H       1  UNL1        0.1632
     18 N          -0.6135    0.9306   -0.6283 N.am    1  UNL1       -0.2504
     19 C          -1.7478    0.1386   -0.3877 C.ar    1  UNL1        0.3213
     20 C          -2.8840    0.6034    0.2704 C.ar    1  UNL1       -0.3167
     21 C          -3.9597   -0.2528    0.4618 C.ar    1  UNL1       -0.0964
     22 C          -3.9250   -1.5604    0.0039 C.ar    1  UNL1       -0.1868
     23 C          -2.7926   -2.0174   -0.6570 C.ar    1  UNL1       -0.0958
     24 C          -1.7110   -1.1773   -0.8506 C.ar    1  UNL1       -0.3049
     25 H           0.0861    0.5018   -1.2123 H       1  UNL1        0.2701
     26 H          -2.9207    1.6198    0.6267 H       1  UNL1        0.1578
     27 H          -4.8384    0.1169    0.9754 H       1  UNL1        0.1449
     28 H          -4.7708   -2.2176    0.1580 H       1  UNL1        0.1437
     29 H          -2.7468   -3.0356   -1.0217 H       1  UNL1        0.1462
     30 H          -0.8265   -1.5417   -1.3603 H       1  UNL1        0.1496
@<TRIPOS>BOND
     1    16    11    1
     2    30    24    1
     3    25    18    1
     4    15    10    1
     5    29    23    1
     6    24    23   ar
     7    24    19   ar
     8    11    10   ar
     9    11     6   ar
    10    23    22   ar
    11     5     4    1
    12    18    19    1
    13    18     2   am
    14    17     1    1
    15    10     9   ar
    16    19    20   ar
    17     4     1    2
    18     4     6    1
    19     1     2    1
    20     2     3    2
    21     6     7   ar
    22    22    28    1
    23    22    21   ar
    24    20    21   ar
    25    20    26    1
    26    21    27    1
    27     9    14    1
    28     9     8   ar
    29     7     8   ar
    30     7    12    1
    31     8    13    1
