@<TRIPOS>MOLECULE
GS-208-0.out
 38 40 0 0 0
SMALL
MULLIKEN_CHARGES
****
Gaussian 16 # wb97xd def2tzvp opt=(calcfc, maxcycles=100, maxstep=10) freq=noraman
@<TRIPOS>ATOM
      1 C          -0.9109   -0.5335    0.3566 C.2     1  UNL1        0.0966
      2 C          -0.2940    0.6680    1.0206 C.2     1  UNL1        0.2700
      3 O          -0.5230    0.9100    2.1885 O.2     1  UNL1       -0.3883
      4 C          -0.1872   -1.5919   -0.0178 C.2     1  UNL1       -0.2539
      5 H          -0.7149   -2.4115   -0.4968 H       1  UNL1        0.1738
      6 C           1.2674   -1.7736    0.0979 C.ar    1  UNL1        0.2436
      7 C           1.9326   -2.4481   -0.9283 C.ar    1  UNL1       -0.2424
      8 C           3.3072   -2.6120   -0.8970 C.ar    1  UNL1       -0.1388
      9 C           4.0422   -2.1210    0.1737 C.ar    1  UNL1       -0.1428
     10 C           3.3900   -1.4758    1.2141 C.ar    1  UNL1       -0.1448
     11 C           2.0145   -1.3066    1.1799 C.ar    1  UNL1       -0.2356
     12 H           1.3627   -2.8345   -1.7652 H       1  UNL1        0.1431
     13 H           3.8061   -3.1269   -1.7082 H       1  UNL1        0.1450
     14 H           5.1164   -2.2518    0.2024 H       1  UNL1        0.1467
     15 H           3.9527   -1.1086    2.0630 H       1  UNL1        0.1451
     16 H           1.5196   -0.8280    2.0145 H       1  UNL1        0.1695
     17 C          -2.3722   -0.4581    0.0981 C.ar    1  UNL1        0.1720
     18 C          -3.2585    0.0603    1.0428 C.ar    1  UNL1       -0.2561
     19 C          -4.6189    0.1084    0.7805 C.ar    1  UNL1       -0.1389
     20 C          -5.1171   -0.3497   -0.4306 C.ar    1  UNL1       -0.1393
     21 C          -4.2428   -0.8530   -1.3830 C.ar    1  UNL1       -0.1469
     22 C          -2.8826   -0.9018   -1.1231 C.ar    1  UNL1       -0.2660
     23 H          -2.8809    0.4135    1.9926 H       1  UNL1        0.1537
     24 H          -5.2932    0.5047    1.5292 H       1  UNL1        0.1438
     25 H          -6.1795   -0.3078   -0.6341 H       1  UNL1        0.1460
     26 H          -4.6183   -1.1994   -2.3375 H       1  UNL1        0.1443
     27 H          -2.2054   -1.2712   -1.8830 H       1  UNL1        0.1681
     28 C           0.5665    1.5621    0.1962 C.ar    1  UNL1        0.0662
     29 C           0.6476    1.4284   -1.1877 C.ar    1  UNL1       -0.1902
     30 C           1.4521    2.2837   -1.9236 C.ar    1  UNL1       -0.1437
     31 C           2.1857    3.2698   -1.2804 C.ar    1  UNL1       -0.1203
     32 C           2.1101    3.4074    0.1008 C.ar    1  UNL1       -0.1222
     33 C           1.3005    2.5606    0.8350 C.ar    1  UNL1       -0.2270
     34 H           0.0813    0.6561   -1.6911 H       1  UNL1        0.1736
     35 H           1.5084    2.1786   -2.9991 H       1  UNL1        0.1475
     36 H           2.8191    3.9334   -1.8553 H       1  UNL1        0.1516
     37 H           2.6854    4.1753    0.6015 H       1  UNL1        0.1492
     38 H           1.2329    2.6557    1.9106 H       1  UNL1        0.1478
@<TRIPOS>BOND
     1    35    30    1
     2    26    21    1
     3    30    31   ar
     4    30    29   ar
     5    27    22    1
     6    36    31    1
     7    12     7    1
     8    13     8    1
     9    34    29    1
    10    21    22   ar
    11    21    20   ar
    12    31    32   ar
    13    29    28   ar
    14    22    17   ar
    15     7     8   ar
    16     7     6   ar
    17     8     9   ar
    18    25    20    1
    19     5     4    1
    20    20    19   ar
    21     4     6    1
    22     4     1    2
    23     6    11   ar
    24    17     1    1
    25    17    18   ar
    26    32    37    1
    27    32    33   ar
    28     9    14    1
    29     9    10   ar
    30    28    33   ar
    31    28     2    1
    32     1     2    1
    33    19    18   ar
    34    19    24    1
    35    33    38    1
    36     2     3    2
    37    18    23    1
    38    11    10   ar
    39    11    16    1
    40    10    15    1
