@<TRIPOS>MOLECULE
GS-366-1.out
 26 26 0 0 0
SMALL
MULLIKEN_CHARGES
****
Gaussian 16 # wB97XD def2tzvp, opt=(calcfc, maxcycles=70, maxstep=1), freq=noraman
@<TRIPOS>ATOM
      1 C           0.2513   -0.5606   -0.2346 C.2     1  UNL1       -0.1154
      2 C           1.1321    0.6271   -0.5396 C.2     1  UNL1        0.2399
      3 O           1.4303    0.8605   -1.7063 O.2     1  UNL1       -0.4794
      4 C           0.7565   -1.7820   -0.1288 C.2     1  UNL1       -0.0422
      5 H           0.1533   -2.6699   -0.0087 H       1  UNL1        0.1847
      6 CL          2.4543   -2.1119   -0.1609 Cl      1  UNL1       -0.0876
      7 C          -1.2049   -0.3070   -0.1388 C.ar    1  UNL1        0.1733
      8 C          -2.0122   -1.0651    0.7099 C.ar    1  UNL1       -0.2398
      9 C          -3.3748   -0.8268    0.7847 C.ar    1  UNL1       -0.1475
     10 C          -3.9506    0.1812    0.0244 C.ar    1  UNL1       -0.1303
     11 C          -3.1530    0.9532   -0.8077 C.ar    1  UNL1       -0.1557
     12 C          -1.7904    0.7145   -0.8871 C.ar    1  UNL1       -0.2164
     13 H          -1.5691   -1.8313    1.3337 H       1  UNL1        0.1633
     14 H          -3.9864   -1.4227    1.4500 H       1  UNL1        0.1465
     15 H          -5.0145    0.3704    0.0880 H       1  UNL1        0.1480
     16 H          -3.5927    1.7457   -1.3997 H       1  UNL1        0.1463
     17 H          -1.1781    1.3165   -1.5467 H       1  UNL1        0.1527
     18 N           1.5069    1.3945    0.4971 N.am    1  UNL1       -0.0788
     19 C           1.1642    1.1284    1.8798 C.3     1  UNL1       -0.2858
     20 C           2.3019    2.5852    0.2722 C.3     1  UNL1       -0.2777
     21 H           0.6247    0.1911    1.9738 H       1  UNL1        0.1696
     22 H           2.0750    1.0656    2.4785 H       1  UNL1        0.1471
     23 H           0.5431    1.9354    2.2748 H       1  UNL1        0.1473
     24 H           1.7779    3.4589    0.6652 H       1  UNL1        0.1413
     25 H           3.2624    2.4957    0.7840 H       1  UNL1        0.1449
     26 H           2.4700    2.7120   -0.7922 H       1  UNL1        0.1518
@<TRIPOS>BOND
     1     3     2    2
     2    17    12    1
     3    16    11    1
     4    12    11   ar
     5    12     7   ar
     6    11    10   ar
     7    26    20    1
     8     2     1    1
     9     2    18   am
    10     1     7    1
    11     1     4    2
    12     6     4    1
    13     7     8   ar
    14     4     5    1
    15    10    15    1
    16    10     9   ar
    17    20    18    1
    18    20    24    1
    19    20    25    1
    20    18    19    1
    21     8     9   ar
    22     8    13    1
    23     9    14    1
    24    19    21    1
    25    19    23    1
    26    19    22    1
