@<TRIPOS>MOLECULE
GS-326-0.out
 26 26 0 0 0
SMALL
MULLIKEN_CHARGES
****
Gaussian 16 # wB97XD def2tzvp, opt=(calcfc, maxcycles=70, maxstep=8), freq=noraman
@<TRIPOS>ATOM
      1 C           0.0709   -0.2778   -0.2142 C.2     1  UNL1       -0.1217
      2 C          -0.4952    1.0855   -0.5326 C.2     1  UNL1        0.2516
      3 O          -0.7183    1.3749   -1.7035 O.2     1  UNL1       -0.4776
      4 C          -0.7094   -1.3411   -0.0823 C.2     1  UNL1       -0.0787
      5 H          -0.3332   -2.3445    0.0500 H       1  UNL1        0.1889
      6 BR         -2.5935   -1.2614   -0.0879 Br      1  UNL1       -0.0571
      7 C           1.5474   -0.3800   -0.1317 C.ar    1  UNL1        0.1606
      8 C           2.1551   -1.2992    0.7242 C.ar    1  UNL1       -0.2361
      9 C           3.5355   -1.3938    0.7907 C.ar    1  UNL1       -0.1480
     10 C           4.3308   -0.5637    0.0135 C.ar    1  UNL1       -0.1289
     11 C           3.7359    0.3660   -0.8270 C.ar    1  UNL1       -0.1562
     12 C           2.3552    0.4611   -0.8973 C.ar    1  UNL1       -0.2167
     13 H           1.5454   -1.9289    1.3597 H       1  UNL1        0.1636
     14 H           3.9909   -2.1101    1.4624 H       1  UNL1        0.1466
     15 H           5.4094   -0.6345    0.0704 H       1  UNL1        0.1481
     16 H           4.3486    1.0216   -1.4324 H       1  UNL1        0.1464
     17 H           1.9005    1.1838   -1.5629 H       1  UNL1        0.1533
     18 N          -0.6830    1.9273    0.4967 N.am    1  UNL1       -0.0781
     19 C          -1.1808    3.2677    0.2597 C.3     1  UNL1       -0.2774
     20 C          -0.4332    1.5932    1.8846 C.3     1  UNL1       -0.2875
     21 H          -1.2870    3.4304   -0.8078 H       1  UNL1        0.1521
     22 H          -2.1502    3.3986    0.7454 H       1  UNL1        0.1447
     23 H          -0.4825    3.9985    0.6724 H       1  UNL1        0.1417
     24 H          -0.1002    0.5648    1.9838 H       1  UNL1        0.1700
     25 H           0.3334    2.2535    2.2955 H       1  UNL1        0.1482
     26 H          -1.3491    1.7192    2.4655 H       1  UNL1        0.1480
@<TRIPOS>BOND
     1     3     2    2
     2    17    12    1
     3    16    11    1
     4    12    11   ar
     5    12     7   ar
     6    11    10   ar
     7    21    19    1
     8     2     1    1
     9     2    18   am
    10     1     7    1
    11     1     4    2
    12     7     8   ar
    13     6     4    1
    14     4     5    1
    15    10    15    1
    16    10     9   ar
    17    19    18    1
    18    19    23    1
    19    19    22    1
    20    18    20    1
    21     8     9   ar
    22     8    13    1
    23     9    14    1
    24    20    24    1
    25    20    25    1
    26    20    26    1
