@<TRIPOS>MOLECULE
GS-342-0.out
 19 18 0 0 0
SMALL
MULLIKEN_CHARGES
****
Gaussian 16 # wB97XD def2tzvp, opt=(calcfc, maxcycles=70, maxstep=8), freq=noraman
@<TRIPOS>ATOM
      1 C          -0.2072    1.3150    0.0517 C.2     1  UNL1       -0.1548
      2 C          -1.1165    0.2892   -0.5744 C.2     1  UNL1        0.3333
      3 O          -1.3106    0.3503   -1.7847 O.2     1  UNL1       -0.4922
      4 C           1.0799    1.0966    0.2561 C.2     1  UNL1       -0.1270
      5 H           1.7600    1.8478    0.6298 H       1  UNL1        0.1837
      6 BR          1.9263   -0.5655   -0.0657 Br      1  UNL1       -0.0781
      7 C          -0.8404    2.6472    0.3252 C.3     1  UNL1       -0.3262
      8 H          -1.2891    3.0414   -0.5886 H       1  UNL1        0.1481
      9 H          -1.6390    2.5428    1.0638 H       1  UNL1        0.1473
     10 H          -0.1109    3.3641    0.6985 H       1  UNL1        0.1393
     11 N          -1.7030   -0.6109    0.2327 N.am    1  UNL1       -0.1017
     12 C          -2.5918   -1.6133   -0.3199 C.3     1  UNL1       -0.2760
     13 C          -1.4867   -0.6942    1.6630 C.3     1  UNL1       -0.2969
     14 H          -2.6891   -1.4593   -1.3896 H       1  UNL1        0.1508
     15 H          -2.1905   -2.6116   -0.1315 H       1  UNL1        0.1410
     16 H          -3.5746   -1.5386    0.1498 H       1  UNL1        0.1423
     17 H          -0.8621    0.1236    2.0088 H       1  UNL1        0.1702
     18 H          -2.4458   -0.6482    2.1825 H       1  UNL1        0.1482
     19 H          -0.9989   -1.6384    1.9161 H       1  UNL1        0.1488
@<TRIPOS>BOND
     1     3     2    2
     2    14    12    1
     3     8     7    1
     4     2     1    1
     5     2    11   am
     6    12    15    1
     7    12    16    1
     8    12    11    1
     9     6     4    1
    10     1     4    2
    11     1     7    1
    12    11    13    1
    13     4     5    1
    14     7    10    1
    15     7     9    1
    16    13    19    1
    17    13    17    1
    18    13    18    1
