@<TRIPOS>MOLECULE
GS-302-0.out
 22 21 0 0 0
SMALL
MULLIKEN_CHARGES
****
Gaussian 16 # wB97XD def2tzvp, opt=(calcfc, maxcycles=70, maxstep=8), freq=noraman
@<TRIPOS>ATOM
      1 C          -1.1348   -0.4316    0.1303 C.2     1  UNL1       -0.0958
      2 C           0.2677   -0.5747   -0.3971 C.2     1  UNL1        0.2949
      3 O           0.4645   -1.3090   -1.3645 O.2     1  UNL1       -0.5060
      4 C          -1.8580    0.6606   -0.0905 C.2     1  UNL1       -0.1456
      5 H          -2.8895    0.6579    0.2524 H       1  UNL1        0.1335
      6 C          -1.3991    1.9139   -0.7642 C.3     1  UNL1       -0.3477
      7 H          -1.4449    2.7581   -0.0710 H       1  UNL1        0.1340
      8 H          -0.3780    1.8380   -1.1384 H       1  UNL1        0.1327
      9 H          -2.0527    2.1592   -1.6044 H       1  UNL1        0.1408
     10 C          -1.6654   -1.6550    0.8191 C.3     1  UNL1       -0.3441
     11 H          -1.5954   -2.5270    0.1654 H       1  UNL1        0.1360
     12 H          -1.0833   -1.8778    1.7178 H       1  UNL1        0.1349
     13 H          -2.7069   -1.5176    1.1088 H       1  UNL1        0.1288
     14 N           1.2619    0.0917    0.2243 N.am    1  UNL1       -0.1126
     15 C           2.6190    0.0091   -0.2766 C.3     1  UNL1       -0.2774
     16 C           1.0924    0.9102    1.4075 C.3     1  UNL1       -0.2945
     17 H           2.6256   -0.5313   -1.2175 H       1  UNL1        0.1480
     18 H           3.0147    1.0152   -0.4311 H       1  UNL1        0.1373
     19 H           3.2596   -0.5082    0.4419 H       1  UNL1        0.1419
     20 H           0.0895    0.8044    1.8080 H       1  UNL1        0.1670
     21 H           1.8109    0.6005    2.1692 H       1  UNL1        0.1466
     22 H           1.2703    1.9631    1.1736 H       1  UNL1        0.1474
@<TRIPOS>BOND
     1     9     6    1
     2     3     2    2
     3    17    15    1
     4     8     6    1
     5     6     4    1
     6     6     7    1
     7    18    15    1
     8     2     1    1
     9     2    14   am
    10    15    14    1
    11    15    19    1
    12     4     1    2
    13     4     5    1
    14     1    10    1
    15    11    10    1
    16    14    16    1
    17    10    13    1
    18    10    12    1
    19    22    16    1
    20    16    20    1
    21    16    21    1
