@<TRIPOS>MOLECULE
GS-378-0.out
 14 13 0 0 0
SMALL
MULLIKEN_CHARGES
****
Gaussian 16 # wB97XD def2tzvp, opt=(calcfc, maxcycles=70, maxstep=8), freq=noraman
@<TRIPOS>ATOM
      1 C           0.4693    0.6834    0.0000 C.2     1  UNL1       -0.0999
      2 C           1.0912   -0.6807   -0.0000 C.2     1  UNL1        0.2880
      3 O           2.3045   -0.7488   -0.0002 O.2     1  UNL1       -0.3949
      4 C          -0.8275    0.9938    0.0000 C.2     1  UNL1       -0.0442
      5 H          -1.1386    2.0293    0.0001 H       1  UNL1        0.1815
      6 CL         -2.2005   -0.0507   -0.0001 Cl      1  UNL1       -0.0702
      7 C           1.4579    1.8183    0.0001 C.3     1  UNL1       -0.3287
      8 H           2.1030    1.7617   -0.8775 H       1  UNL1        0.1366
      9 H           0.9513    2.7819    0.0002 H       1  UNL1        0.1296
     10 H           2.1031    1.7616    0.8776 H       1  UNL1        0.1366
     11 C           0.2694   -1.9375    0.0002 C.3     1  UNL1       -0.3780
     12 H          -0.3767   -1.9774    0.8777 H       1  UNL1        0.1543
     13 H          -0.3767   -1.9776   -0.8772 H       1  UNL1        0.1543
     14 H           0.9446   -2.7900    0.0003 H       1  UNL1        0.1351
@<TRIPOS>BOND
     1     8     7    1
     2    13    11    1
     3     3     2    2
     4     6     4    1
     5     2     1    1
     6     2    11    1
     7     4     1    2
     8     4     5    1
     9     1     7    1
    10     7     9    1
    11     7    10    1
    12    11    14    1
    13    11    12    1
