@<TRIPOS>MOLECULE
GS-316-0.out
 15 14 0 0 0
SMALL
MULLIKEN_CHARGES
****
Gaussian 16 # wB97XD def2tzvp, opt=(calcfc, maxcycles=70, maxstep=8), freq=noraman
@<TRIPOS>ATOM
      1 C           0.7015    0.2776    0.0248 C.2     1  UNL1       -0.0343
      2 C          -0.5788   -0.4809    0.1148 C.2     1  UNL1        0.4493
      3 O          -0.6450   -1.6356    0.4602 O.2     1  UNL1       -0.4204
      4 C           1.9049   -0.2767   -0.1005 C.2     1  UNL1       -0.1130
      5 H           2.7438    0.4092   -0.1516 H       1  UNL1        0.1637
      6 C           2.2537   -1.7218   -0.1945 C.3     1  UNL1       -0.3341
      7 H           3.0101   -1.8577   -0.9689 H       1  UNL1        0.1406
      8 H           2.7037   -2.0469    0.7478 H       1  UNL1        0.1480
      9 H           1.3962   -2.3547   -0.3978 H       1  UNL1        0.1423
     10 CL          0.5729    2.0200    0.0800 Cl      1  UNL1       -0.1094
     11 O          -1.6324    0.2450   -0.2311 O.3     1  UNL1       -0.2717
     12 C          -2.9013   -0.4120   -0.1692 C.3     1  UNL1       -0.1978
     13 H          -3.6308    0.3332   -0.4707 H       1  UNL1        0.1507
     14 H          -2.9218   -1.2616   -0.8503 H       1  UNL1        0.1428
     15 H          -3.1021   -0.7523    0.8457 H       1  UNL1        0.1432
@<TRIPOS>BOND
     1     7     6    1
     2    14    12    1
     3    13    12    1
     4     9     6    1
     5    11    12    1
     6    11     2    1
     7     6     4    1
     8     6     8    1
     9    12    15    1
    10     5     4    1
    11     4     1    2
    12     1    10    1
    13     1     2    1
    14     2     3    2
