@<TRIPOS>MOLECULE
GS-383-0.out
 23 23 0 0 0
SMALL
MULLIKEN_CHARGES
****
Gaussian 16 # wB97XD def2tzvp, opt=(calcfc, maxcycles=70, maxstep=8), freq=noraman
@<TRIPOS>ATOM
      1 C          -2.3532   -0.6115    0.3382 C.2     1  UNL1       -0.1369
      2 C          -0.9468   -0.8543   -0.1406 C.2     1  UNL1        0.4266
      3 O          -0.7211   -1.7189   -0.9688 O.2     1  UNL1       -0.4597
      4 C          -3.0081    0.5201    0.1277 C.2     1  UNL1       -0.0871
      5 H          -4.0351    0.6634    0.4323 H       1  UNL1        0.1795
      6 CL         -2.3543    1.9068   -0.6855 Cl      1  UNL1       -0.0945
      7 C          -3.0103   -1.7857    1.0015 C.3     1  UNL1       -0.3324
      8 H          -3.0045   -2.6436    0.3272 H       1  UNL1        0.1466
      9 H          -2.4634   -2.0711    1.9026 H       1  UNL1        0.1459
     10 H          -4.0395   -1.5590    1.2744 H       1  UNL1        0.1366
     11 N          -0.0090   -0.0796    0.4556 N.am    1  UNL1       -0.2792
     12 C           1.3800   -0.0340    0.2397 C.ar    1  UNL1        0.3118
     13 C           2.0946    0.9453    0.9304 C.ar    1  UNL1       -0.2997
     14 C           3.4645    1.0517    0.7746 C.ar    1  UNL1       -0.0985
     15 C           4.1433    0.1851   -0.0716 C.ar    1  UNL1       -0.1842
     16 C           3.4315   -0.7868   -0.7561 C.ar    1  UNL1       -0.1085
     17 C           2.0562   -0.9069   -0.6095 C.ar    1  UNL1       -0.2915
     18 H          -0.3619    0.5882    1.1219 H       1  UNL1        0.2773
     19 H           1.5719    1.6270    1.5912 H       1  UNL1        0.1466
     20 H           4.0028    1.8179    1.3177 H       1  UNL1        0.1474
     21 H           5.2151    0.2683   -0.1945 H       1  UNL1        0.1445
     22 H           3.9482   -1.4698   -1.4186 H       1  UNL1        0.1456
     23 H           1.5114   -1.6663   -1.1457 H       1  UNL1        0.1638
@<TRIPOS>BOND
     1    22    16    1
     2    23    17    1
     3     3     2    2
     4    16    17   ar
     5    16    15   ar
     6     6     4    1
     7    17    12   ar
     8    21    15    1
     9     2     1    1
    10     2    11   am
    11    15    14   ar
    12     4     1    2
    13     4     5    1
    14    12    11    1
    15    12    13   ar
    16     8     7    1
    17     1     7    1
    18    11    18    1
    19    14    13   ar
    20    14    20    1
    21    13    19    1
    22     7    10    1
    23     7     9    1
