@<TRIPOS>MOLECULE
GS-363-0.out
 20 20 0 0 0
SMALL
MULLIKEN_CHARGES
****
Gaussian 16 # wB97XD def2tzvp, opt=(calcfc, maxcycles=70, maxstep=8), freq=noraman
@<TRIPOS>ATOM
      1 C           0.5843   -0.0994    0.0573 C.2     1  UNL1       -0.0758
      2 C           1.2304    1.2478   -0.1609 C.2     1  UNL1        0.2532
      3 O           1.5004    1.9813    0.7763 O.2     1  UNL1       -0.4445
      4 C           1.3170   -1.1812    0.2849 C.2     1  UNL1       -0.0557
      5 H           0.8931   -2.1493    0.5086 H       1  UNL1        0.1864
      6 CL          3.0463   -1.1846    0.2676 Cl      1  UNL1       -0.0845
      7 C          -0.8962   -0.1469    0.0435 C.ar    1  UNL1        0.2073
      8 C          -1.5732   -1.2598   -0.4561 C.ar    1  UNL1       -0.2572
      9 C          -2.9579   -1.3035   -0.4478 C.ar    1  UNL1       -0.1344
     10 C          -3.6880   -0.2324    0.0471 C.ar    1  UNL1       -0.1434
     11 C          -3.0236    0.8857    0.5301 C.ar    1  UNL1       -0.1421
     12 C          -1.6387    0.9310    0.5264 C.ar    1  UNL1       -0.2251
     13 H          -1.0145   -2.0876   -0.8741 H       1  UNL1        0.1617
     14 H          -3.4679   -2.1734   -0.8416 H       1  UNL1        0.1472
     15 H          -4.7699   -0.2654    0.0481 H       1  UNL1        0.1480
     16 H          -3.5851    1.7279    0.9138 H       1  UNL1        0.1469
     17 H          -1.1293    1.8038    0.9151 H       1  UNL1        0.1523
     18 N           1.4404    1.5704   -1.4449 N.am    1  UNL1       -0.4230
     19 H           1.2202    0.9333   -2.1891 H       1  UNL1        0.2983
     20 H           1.8550    2.4582   -1.6733 H       1  UNL1        0.2842
@<TRIPOS>BOND
     1    19    18    1
     2    20    18    1
     3    18     2   am
     4    13     8    1
     5    14     9    1
     6     8     9   ar
     7     8     7   ar
     8     9    10   ar
     9     2     1    1
    10     2     3    2
    11     7     1    1
    12     7    12   ar
    13    10    15    1
    14    10    11   ar
    15     1     4    2
    16     6     4    1
    17     4     5    1
    18    12    11   ar
    19    12    17    1
    20    11    16    1
