@<TRIPOS>MOLECULE
GS-33-1.out
 28 29 0 0 0
SMALL
MULLIKEN_CHARGES
****
Gaussian 16 # wB97XD def2tzvp, opt=(maxcycles=70, maxstep=1), freq=noraman, scrf=(
@<TRIPOS>ATOM
      1 C           0.0418    1.6949    0.0208 C.2     1  UNL1       -0.0011
      2 C           1.2554    2.4870    0.2895 C.2     1  UNL1        0.0825
      3 O           1.3188    3.6895    0.2076 O.2     1  UNL1       -0.3610
      4 C           0.0212    0.3473    0.0250 C.2     1  UNL1        0.1396
      5 C          -1.2245   -0.4527   -0.0341 C.ar    1  UNL1        0.1191
      6 C          -2.2483   -0.2608    0.8909 C.ar    1  UNL1       -0.2503
      7 C          -3.3851   -1.0514    0.8484 C.ar    1  UNL1       -0.1277
      8 C          -3.5181   -2.0296   -0.1270 C.ar    1  UNL1       -0.1289
      9 C          -2.5015   -2.2272   -1.0507 C.ar    1  UNL1       -0.1482
     10 C          -1.3536   -1.4537   -0.9951 C.ar    1  UNL1       -0.2106
     11 H          -2.1465    0.4989    1.6548 H       1  UNL1        0.1638
     12 H          -4.1688   -0.9029    1.5800 H       1  UNL1        0.1476
     13 H          -4.4101   -2.6419   -0.1627 H       1  UNL1        0.1495
     14 H          -2.5982   -2.9914   -1.8110 H       1  UNL1        0.1472
     15 H          -0.5533   -1.6213   -1.7053 H       1  UNL1        0.1615
     16 C           1.2806   -0.4375    0.0586 C.ar    1  UNL1        0.1552
     17 C           1.4366   -1.4510    1.0047 C.ar    1  UNL1       -0.2042
     18 C           2.5978   -2.2022    1.0389 C.ar    1  UNL1       -0.1478
     19 C           3.6062   -1.9708    0.1113 C.ar    1  UNL1       -0.1280
     20 C           3.4481   -0.9839   -0.8487 C.ar    1  UNL1       -0.1119
     21 C           2.2910   -0.2193   -0.8753 C.ar    1  UNL1       -0.2865
     22 H           0.6473   -1.6403    1.7215 H       1  UNL1        0.1627
     23 H           2.7159   -2.9745    1.7879 H       1  UNL1        0.1483
     24 H           4.5097   -2.5665    0.1333 H       1  UNL1        0.1508
     25 H           4.2230   -0.8092   -1.5837 H       1  UNL1        0.1497
     26 H           2.1605    0.5380   -1.6382 H       1  UNL1        0.1703
     27 CL         -1.3846    2.6451   -0.2587 Cl      1  UNL1       -0.0839
     28 H           2.1216    1.8932    0.6158 H       1  UNL1        0.1423
@<TRIPOS>BOND
     1    14     9    1
     2    15    10    1
     3    26    21    1
     4    25    20    1
     5     9    10   ar
     6     9     8   ar
     7    10     5   ar
     8    21    20   ar
     9    21    16   ar
    10    20    19   ar
    11    27     1    1
    12    13     8    1
    13     8     7   ar
    14     5     4    1
    15     5     6   ar
    16     1     4    2
    17     1     2    1
    18     4    16    1
    19    16    17   ar
    20    19    24    1
    21    19    18   ar
    22     3     2    2
    23     2    28    1
    24     7     6   ar
    25     7    12    1
    26     6    11    1
    27    17    18   ar
    28    17    22    1
    29    18    23    1
