@<TRIPOS>MOLECULE
GS-321-0.out
 18 18 0 0 0
SMALL
MULLIKEN_CHARGES
****
Gaussian 16 # wB97XD def2tzvp, opt=(calcfc, maxcycles=70, maxstep=8), freq=noraman
@<TRIPOS>ATOM
      1 C           0.1260    0.3396   -0.0591 C.2     1  UNL1       -0.0575
      2 C           0.5256    1.7213   -0.4145 C.2     1  UNL1        0.1587
      3 O          -0.2544    2.5910   -0.7177 O.2     1  UNL1       -0.3558
      4 C           1.0295   -0.6090    0.1973 C.2     1  UNL1       -0.0780
      5 H           0.7361   -1.6126    0.4712 H       1  UNL1        0.2033
      6 BR          2.9005   -0.4272    0.1345 Br      1  UNL1       -0.0280
      7 C          -1.3170   -0.0053   -0.0053 C.ar    1  UNL1        0.2048
      8 C          -2.2003    0.7556    0.7591 C.ar    1  UNL1       -0.2435
      9 C          -3.5404    0.4125    0.8280 C.ar    1  UNL1       -0.1252
     10 C          -4.0176   -0.6891    0.1299 C.ar    1  UNL1       -0.1525
     11 C          -3.1466   -1.4467   -0.6379 C.ar    1  UNL1       -0.1246
     12 C          -1.8039   -1.1053   -0.7068 C.ar    1  UNL1       -0.2710
     13 H          -1.8355    1.6130    1.3091 H       1  UNL1        0.1511
     14 H          -4.2152    1.0068    1.4308 H       1  UNL1        0.1465
     15 H          -5.0661   -0.9532    0.1830 H       1  UNL1        0.1474
     16 H          -3.5115   -2.3032   -1.1903 H       1  UNL1        0.1469
     17 H          -1.1292   -1.6902   -1.3198 H       1  UNL1        0.1630
     18 H           1.6080    1.9217   -0.3946 H       1  UNL1        0.1143
@<TRIPOS>BOND
     1    17    12    1
     2    16    11    1
     3     3     2    2
     4    12    11   ar
     5    12     7   ar
     6    11    10   ar
     7     2    18    1
     8     2     1    1
     9     1     7    1
    10     1     4    2
    11     7     8   ar
    12    10    15    1
    13    10     9   ar
    14     6     4    1
    15     4     5    1
    16     8     9   ar
    17     8    13    1
    18     9    14    1
