@<TRIPOS>MOLECULE
GS-308-0.out
 15 14 0 0 0
SMALL
MULLIKEN_CHARGES
****
Gaussian 16 # wB97XD def2tzvp, opt=(calcfc, maxcycles=70, maxstep=8), freq=noraman
@<TRIPOS>ATOM
      1 C          -0.2303    0.5710    0.0077 C.2     1  UNL1       -0.0912
      2 C           1.1713    0.0817    0.1372 C.2     1  UNL1        0.4580
      3 O           2.0698    0.7539    0.5820 O.2     1  UNL1       -0.4170
      4 C          -0.5719    1.8487   -0.1357 C.2     1  UNL1       -0.0995
      5 H          -1.6321    2.0638   -0.2145 H       1  UNL1        0.1678
      6 C           0.3245    3.0365   -0.2204 C.3     1  UNL1       -0.3380
      7 H          -0.0275    3.6936   -1.0171 H       1  UNL1        0.1417
      8 H           0.2589    3.6047    0.7116 H       1  UNL1        0.1490
      9 H           1.3646    2.7759   -0.3876 H       1  UNL1        0.1416
     10 BR         -1.6021   -0.7520    0.0469 Br      1  UNL1       -0.0805
     11 O           1.3270   -1.1616   -0.2947 O.3     1  UNL1       -0.2701
     12 C           2.6467   -1.7053   -0.2017 C.3     1  UNL1       -0.1988
     13 H           2.5719   -2.7193   -0.5819 H       1  UNL1        0.1508
     14 H           3.3398   -1.1224   -0.8066 H       1  UNL1        0.1430
     15 H           2.9810   -1.7111    0.8348 H       1  UNL1        0.1433
@<TRIPOS>BOND
     1     7     6    1
     2    14    12    1
     3    13    12    1
     4     9     6    1
     5    11    12    1
     6    11     2    1
     7     6     4    1
     8     6     8    1
     9     5     4    1
    10    12    15    1
    11     4     1    2
    12     1    10    1
    13     1     2    1
    14     2     3    2
