@<TRIPOS>MOLECULE
GS-352-0.out
 18 18 0 0 0
SMALL
MULLIKEN_CHARGES
****
Gaussian 16 # wB97XD def2tzvp, opt=(calcfc, maxcycles=70, maxstep=8), freq=noraman
@<TRIPOS>ATOM
      1 C          -1.0593   -0.3561    0.1031 C.2     1  UNL1       -0.0919
      2 C           0.1578   -0.3294    1.0003 C.2     1  UNL1        0.3668
      3 O          -0.0055   -0.3639    2.1974 O.2     1  UNL1       -0.3546
      4 C          -1.6871    0.6933   -0.3892 C.2     1  UNL1       -0.1315
      5 H          -2.5823    0.6347   -0.9894 H       1  UNL1        0.2049
      6 BR         -1.0731    2.4479   -0.0915 Br      1  UNL1       -0.0284
      7 BR         -1.7073   -2.1000   -0.2349 Br      1  UNL1       -0.0182
      8 C           1.4934   -0.2866    0.3613 C.ar    1  UNL1        0.0405
      9 C           2.6253   -0.2734    1.1770 C.ar    1  UNL1       -0.2106
     10 C           3.8853   -0.2305    0.6113 C.ar    1  UNL1       -0.1185
     11 C           4.0242   -0.2021   -0.7718 C.ar    1  UNL1       -0.1185
     12 C           2.9029   -0.2166   -1.5882 C.ar    1  UNL1       -0.1466
     13 C           1.6384   -0.2581   -1.0242 C.ar    1  UNL1       -0.1854
     14 H           2.5017   -0.2962    2.2515 H       1  UNL1        0.1529
     15 H           4.7625   -0.2190    1.2447 H       1  UNL1        0.1530
     16 H           5.0120   -0.1685   -1.2135 H       1  UNL1        0.1551
     17 H           3.0128   -0.1945   -2.6642 H       1  UNL1        0.1531
     18 H           0.7660   -0.2665   -1.6646 H       1  UNL1        0.1778
@<TRIPOS>BOND
     1    17    12    1
     2    18    13    1
     3    12    13   ar
     4    12    11   ar
     5    16    11    1
     6    13     8   ar
     7     5     4    1
     8    11    10   ar
     9     4     6    1
    10     4     1    2
    11     7     1    1
    12     1     2    1
    13     8     2    1
    14     8     9   ar
    15    10     9   ar
    16    10    15    1
    17     2     3    2
    18     9    14    1
