@<TRIPOS>MOLECULE
GS-307-0.out
 13 12 0 0 0
SMALL
MULLIKEN_CHARGES
****
Gaussian 16 # wB97XD def2tzvp, opt=(calcfc, maxcycles=70, maxstep=8), freq=noraman
@<TRIPOS>ATOM
      1 C          -0.3178   -0.2472   -0.0003 C.2     1  UNL1       -0.0442
      2 C          -0.9809    1.0992    0.0710 C.2     1  UNL1        0.3313
      3 O          -2.0794    1.2238    0.5916 O.2     1  UNL1       -0.4615
      4 C          -0.9555   -1.4074   -0.1106 C.2     1  UNL1       -0.1137
      5 H          -0.3455   -2.3036   -0.1444 H       1  UNL1        0.1678
      6 C          -2.4258   -1.6351   -0.2172 C.3     1  UNL1       -0.3304
      7 H          -2.6189   -2.3566   -1.0130 H       1  UNL1        0.1384
      8 H          -2.7925   -2.0810    0.7113 H       1  UNL1        0.1448
      9 H          -2.9835   -0.7225   -0.4009 H       1  UNL1        0.1399
     10 BR          1.5952   -0.2623    0.0662 Br      1  UNL1       -0.1016
     11 N          -0.3175    2.1318   -0.4735 N.am    1  UNL1       -0.4422
     12 H          -0.7381    3.0440   -0.4426 H       1  UNL1        0.2854
     13 H           0.5830    2.0283   -0.9047 H       1  UNL1        0.2861
@<TRIPOS>BOND
     1     7     6    1
     2    13    11    1
     3    11    12    1
     4    11     2   am
     5     9     6    1
     6     6     4    1
     7     6     8    1
     8     5     4    1
     9     4     1    2
    10     1    10    1
    11     1     2    1
    12     2     3    2
