@<TRIPOS>MOLECULE
GS-31-1.out
 40 42 0 0 0
SMALL
MULLIKEN_CHARGES
****
Gaussian 16 # wb97xd def2tzvp opt=(calcfc, maxcycles=100, maxstep=10) freq=noraman
@<TRIPOS>ATOM
      1 C          -0.6177   -1.0230    0.1777 C.2     1  UNL1       -0.0335
      2 C           0.8504   -1.3105    0.3627 C.2     1  UNL1        0.2552
      3 O           1.2555   -2.0162    1.2654 O.2     1  UNL1       -0.4363
      4 C          -1.1527    0.2008    0.1277 C.2     1  UNL1        0.1487
      5 C          -2.5966    0.4640   -0.1003 C.ar    1  UNL1        0.1115
      6 C          -3.3290    1.1576    0.8596 C.ar    1  UNL1       -0.2125
      7 C          -4.6713    1.4320    0.6521 C.ar    1  UNL1       -0.1511
      8 C          -5.2877    1.0380   -0.5275 C.ar    1  UNL1       -0.1286
      9 C          -4.5572    0.3657   -1.4967 C.ar    1  UNL1       -0.1276
     10 C          -3.2185    0.0757   -1.2830 C.ar    1  UNL1       -0.2520
     11 H          -2.8449    1.4788    1.7739 H       1  UNL1        0.1550
     12 H          -5.2352    1.9601    1.4103 H       1  UNL1        0.1456
     13 H          -6.3342    1.2599   -0.6933 H       1  UNL1        0.1480
     14 H          -5.0298    0.0658   -2.4232 H       1  UNL1        0.1459
     15 H          -2.6491   -0.4481   -2.0402 H       1  UNL1        0.1606
     16 C          -0.3015    1.4087    0.3202 C.ar    1  UNL1        0.0315
     17 C          -0.3294    2.4293   -0.6287 C.ar    1  UNL1       -0.1805
     18 C           0.4830    3.5419   -0.4838 C.ar    1  UNL1       -0.1537
     19 C           1.3158    3.6581    0.6208 C.ar    1  UNL1       -0.1227
     20 C           1.3298    2.6580    1.5815 C.ar    1  UNL1       -0.1396
     21 C           0.5252    1.5389    1.4332 C.ar    1  UNL1       -0.2028
     22 H          -0.9807    2.3426   -1.4897 H       1  UNL1        0.1595
     23 H           0.4647    4.3211   -1.2349 H       1  UNL1        0.1453
     24 H           1.9477    4.5294    0.7348 H       1  UNL1        0.1480
     25 H           1.9676    2.7478    2.4513 H       1  UNL1        0.1458
     26 H           0.5355    0.7620    2.1874 H       1  UNL1        0.1555
     27 BR         -1.6596   -2.6052    0.1331 Br      1  UNL1       -0.0430
     28 N           1.6357   -0.7169   -0.5708 N.am    1  UNL1       -0.2410
     29 C           3.0328   -0.5406   -0.5082 C.ar    1  UNL1        0.3142
     30 C           3.5533    0.6454   -1.0200 C.ar    1  UNL1       -0.2909
     31 C           4.9189    0.8692   -1.0005 C.ar    1  UNL1       -0.1091
     32 C           5.7751   -0.0824   -0.4633 C.ar    1  UNL1       -0.1741
     33 C           5.2519   -1.2614    0.0458 C.ar    1  UNL1       -0.0922
     34 C           3.8856   -1.5018    0.0231 C.ar    1  UNL1       -0.3108
     35 H           1.1576   -0.1203   -1.2264 H       1  UNL1        0.2771
     36 H           2.8818    1.3958   -1.4218 H       1  UNL1        0.1638
     37 H           5.3132    1.7949   -1.3997 H       1  UNL1        0.1460
     38 H           6.8426    0.0941   -0.4434 H       1  UNL1        0.1450
     39 H           5.9124   -2.0116    0.4616 H       1  UNL1        0.1466
     40 H           3.4835   -2.4239    0.4129 H       1  UNL1        0.1532
@<TRIPOS>BOND
     1    14     9    1
     2    15    10    1
     3     9    10   ar
     4     9     8   ar
     5    22    17    1
     6    36    30    1
     7    37    31    1
     8    10     5   ar
     9    23    18    1
    10    35    28    1
    11    30    31   ar
    12    30    29   ar
    13    31    32   ar
    14    13     8    1
    15    17    18   ar
    16    17    16   ar
    17    28    29    1
    18    28     2   am
    19     8     7   ar
    20    29    34   ar
    21    18    19   ar
    22    32    38    1
    23    32    33   ar
    24     5     4    1
    25     5     6   ar
    26    34    33   ar
    27    34    40    1
    28    33    39    1
    29     4     1    2
    30     4    16    1
    31    27     1    1
    32     1     2    1
    33    16    21   ar
    34     2     3    2
    35    19    24    1
    36    19    20   ar
    37     7     6   ar
    38     7    12    1
    39     6    11    1
    40    21    20   ar
    41    21    26    1
    42    20    25    1
