@<TRIPOS>MOLECULE
GS-362-0.out
 21 21 0 0 0
SMALL
MULLIKEN_CHARGES
****
Gaussian 16 # wB97XD def2tzvp, opt=(calcfc, maxcycles=70, maxstep=8), freq=noraman
@<TRIPOS>ATOM
      1 C           0.5894   -0.1066   -0.0982 C.2     1  UNL1       -0.0105
      2 C           1.2216    1.2485    0.1164 C.2     1  UNL1        0.1857
      3 O           1.6055    1.9067   -0.8204 O.2     1  UNL1       -0.3572
      4 C           1.3258   -1.1934   -0.2797 C.2     1  UNL1       -0.0712
      5 H           0.9081   -2.1737   -0.4582 H       1  UNL1        0.1878
      6 CL          3.0568   -1.1871   -0.2421 Cl      1  UNL1       -0.0865
      7 C          -0.8906   -0.1586   -0.0716 C.ar    1  UNL1        0.1683
      8 C          -1.5622   -1.2291    0.5191 C.ar    1  UNL1       -0.2541
      9 C          -2.9468   -1.2735    0.5236 C.ar    1  UNL1       -0.1341
     10 C          -3.6808   -0.2440   -0.0485 C.ar    1  UNL1       -0.1408
     11 C          -3.0216    0.8327   -0.6235 C.ar    1  UNL1       -0.1422
     12 C          -1.6365    0.8777   -0.6335 C.ar    1  UNL1       -0.2194
     13 H          -0.9979   -2.0212    0.9947 H       1  UNL1        0.1633
     14 H          -3.4539   -2.1102    0.9868 H       1  UNL1        0.1478
     15 H          -4.7626   -0.2772   -0.0390 H       1  UNL1        0.1488
     16 H          -3.5867    1.6415   -1.0687 H       1  UNL1        0.1479
     17 H          -1.1328    1.7178   -1.0955 H       1  UNL1        0.1558
     18 C           1.3079    1.7058    1.5402 C.3     1  UNL1       -0.3501
     19 H           1.9594    1.0227    2.0911 H       1  UNL1        0.1571
     20 H           1.6974    2.7196    1.5959 H       1  UNL1        0.1422
     21 H           0.3218    1.6510    2.0061 H       1  UNL1        0.1614
@<TRIPOS>BOND
     1    17    12    1
     2    16    11    1
     3     3     2    2
     4    12    11   ar
     5    12     7   ar
     6    11    10   ar
     7     5     4    1
     8     4     6    1
     9     4     1    2
    10     1     7    1
    11     1     2    1
    12     7     8   ar
    13    10    15    1
    14    10     9   ar
    15     2    18    1
    16     8     9   ar
    17     8    13    1
    18     9    14    1
    19    18    20    1
    20    18    21    1
    21    18    19    1
