@<TRIPOS>MOLECULE
GS-377-0.out
 11 10 0 0 0
SMALL
MULLIKEN_CHARGES
****
Gaussian 16 # wB97XD def2tzvp, opt=(calcfc, maxcycles=70, maxstep=8), freq=noraman
@<TRIPOS>ATOM
      1 C           0.5386    0.4260   -0.0000 C.2     1  UNL1       -0.0587
      2 C           0.9317   -0.9954    0.0000 C.2     1  UNL1        0.1620
      3 O           2.0865   -1.3556   -0.0000 O.2     1  UNL1       -0.3725
      4 C          -0.7405    0.8005   -0.0000 C.2     1  UNL1       -0.0319
      5 H          -1.0346    1.8411   -0.0000 H       1  UNL1        0.1864
      6 CL         -2.1041   -0.2588    0.0000 Cl      1  UNL1       -0.0717
      7 C           1.6386    1.4437    0.0000 C.3     1  UNL1       -0.3443
      8 H           2.2731    1.3152   -0.8783 H       1  UNL1        0.1412
      9 H           1.2404    2.4568   -0.0000 H       1  UNL1        0.1380
     10 H           2.2731    1.3152    0.8783 H       1  UNL1        0.1412
     11 H           0.1149   -1.7335    0.0000 H       1  UNL1        0.1104
@<TRIPOS>BOND
     1     8     7    1
     2     9     7    1
     3     1     2    1
     4     1     4    2
     5     1     7    1
     6     2     3    2
     7     2    11    1
     8     4     5    1
     9     4     6    1
    10     7    10    1
