@<TRIPOS>MOLECULE
GS-345-0.out
 8 7 0 0 0
SMALL
MULLIKEN_CHARGES
****
Gaussian 16 # wB97XD def2tzvp, opt=(calcfc, maxcycles=70, maxstep=8), freq=noraman
@<TRIPOS>ATOM
      1 C          -0.4113    0.1529   -0.0000 C.2     1  UNL1       -0.0526
      2 C          -0.3151    1.6285    0.0000 C.2     1  UNL1        0.1441
      3 O          -1.2641    2.3676   -0.0000 O.2     1  UNL1       -0.3393
      4 C           0.6253   -0.6808   -0.0000 C.2     1  UNL1       -0.0651
      5 H           0.5016   -1.7537    0.0000 H       1  UNL1        0.2093
      6 BR          2.4269   -0.1635    0.0000 Br      1  UNL1        0.0019
      7 BR         -2.1554   -0.5737    0.0000 Br      1  UNL1       -0.0340
      8 H           0.7154    2.0146    0.0000 H       1  UNL1        0.1355
@<TRIPOS>BOND
     1     1     2    1
     2     1     4    2
     3     1     7    1
     4     2     3    2
     5     2     8    1
     6     4     5    1
     7     4     6    1
