@<TRIPOS>MOLECULE
GS-310-1.out
 19 18 0 0 0
SMALL
MULLIKEN_CHARGES
****
Gaussian 16 # wB97XD def2tzvp, opt=(calcfc, maxcycles=70, maxstep=1), freq=noraman
@<TRIPOS>ATOM
      1 C          -0.3951    0.5190   -0.1602 C.2     1  UNL1       -0.0925
      2 C           0.7820   -0.3009   -0.6184 C.2     1  UNL1        0.3032
      3 O           0.7918   -0.7335   -1.7654 O.2     1  UNL1       -0.4813
      4 C          -0.4267    1.8375   -0.0686 C.2     1  UNL1       -0.1391
      5 H          -1.3617    2.3205    0.1926 H       1  UNL1        0.1626
      6 C           0.7503    2.7297   -0.2929 C.3     1  UNL1       -0.3451
      7 H           0.9700    3.2909    0.6182 H       1  UNL1        0.1445
      8 H           1.6447    2.1797   -0.5834 H       1  UNL1        0.1421
      9 H           0.5236    3.4594   -1.0727 H       1  UNL1        0.1503
     10 BR         -1.9490   -0.5315    0.1597 Br      1  UNL1       -0.0773
     11 N           1.7737   -0.5068    0.2657 N.am    1  UNL1       -0.1067
     12 C           2.9600   -1.2364   -0.1389 C.3     1  UNL1       -0.2784
     13 C           1.7624   -0.0655    1.6471 C.3     1  UNL1       -0.2979
     14 H           2.9312   -1.4108   -1.2094 H       1  UNL1        0.1512
     15 H           3.8481   -0.6543    0.1132 H       1  UNL1        0.1423
     16 H           3.0109   -2.1944    0.3833 H       1  UNL1        0.1473
     17 H           0.7889    0.3265    1.9223 H       1  UNL1        0.1705
     18 H           1.9954   -0.9113    2.2962 H       1  UNL1        0.1512
     19 H           2.5151    0.7105    1.8042 H       1  UNL1        0.1529
@<TRIPOS>BOND
     1     3     2    2
     2    14    12    1
     3     9     6    1
     4     2     1    1
     5     2    11   am
     6     8     6    1
     7     6     4    1
     8     6     7    1
     9     1     4    2
    10     1    10    1
    11    12    15    1
    12    12    11    1
    13    12    16    1
    14     4     5    1
    15    11    13    1
    16    13    19    1
    17    13    17    1
    18    13    18    1
