@<TRIPOS>MOLECULE
GS-368-0.out
 28 29 0 0 0
SMALL
MULLIKEN_CHARGES
****
Gaussian 16 # wB97XD def2tzvp, opt=(calcfc, maxcycles=70, maxstep=8), freq=noraman
@<TRIPOS>ATOM
      1 C          -0.5825    1.0079    0.1635 C.2     1  UNL1       -0.0550
      2 C           0.6150    0.5482    0.9595 C.2     1  UNL1        0.2728
      3 O           0.7518    0.9132    2.1065 O.2     1  UNL1       -0.3681
      4 C          -0.6104    2.1980   -0.4193 C.2     1  UNL1       -0.0380
      5 H          -1.4689    2.5796   -0.9527 H       1  UNL1        0.1872
      6 CL          0.7310    3.2904   -0.4150 Cl      1  UNL1       -0.0836
      7 C          -1.7223    0.0660    0.0787 C.ar    1  UNL1        0.1587
      8 C          -2.4856   -0.0333   -1.0849 C.ar    1  UNL1       -0.2570
      9 C          -3.5566   -0.9092   -1.1503 C.ar    1  UNL1       -0.1408
     10 C          -3.8725   -1.7090   -0.0609 C.ar    1  UNL1       -0.1287
     11 C          -3.1084   -1.6296    1.0941 C.ar    1  UNL1       -0.1549
     12 C          -2.0387   -0.7512    1.1638 C.ar    1  UNL1       -0.2226
     13 H          -2.2268    0.5628   -1.9509 H       1  UNL1        0.1659
     14 H          -4.1386   -0.9759   -2.0605 H       1  UNL1        0.1474
     15 H          -4.7058   -2.3976   -0.1156 H       1  UNL1        0.1487
     16 H          -3.3452   -2.2531    1.9466 H       1  UNL1        0.1470
     17 H          -1.4562   -0.6913    2.0747 H       1  UNL1        0.1591
     18 C           1.5657   -0.3823    0.2997 C.ar    1  UNL1        0.0540
     19 C           2.6042   -0.9333    1.0501 C.ar    1  UNL1       -0.2093
     20 C           3.5060   -1.7969    0.4573 C.ar    1  UNL1       -0.1235
     21 C           3.3793   -2.1146   -0.8903 C.ar    1  UNL1       -0.1145
     22 C           2.3500   -1.5687   -1.6432 C.ar    1  UNL1       -0.1599
     23 C           1.4431   -0.7054   -1.0499 C.ar    1  UNL1       -0.1653
     24 H           2.6904   -0.6766    2.0977 H       1  UNL1        0.1498
     25 H           4.3097   -2.2253    1.0419 H       1  UNL1        0.1511
     26 H           4.0866   -2.7907   -1.3535 H       1  UNL1        0.1535
     27 H           2.2534   -1.8153   -2.6922 H       1  UNL1        0.1502
     28 H           0.6422   -0.2795   -1.6405 H       1  UNL1        0.1757
@<TRIPOS>BOND
     1    27    22    1
     2    14     9    1
     3    13     8    1
     4    22    23   ar
     5    22    21   ar
     6    28    23    1
     7    26    21    1
     8     9     8   ar
     9     9    10   ar
    10     8     7   ar
    11    23    18   ar
    12     5     4    1
    13    21    20   ar
    14     4     6    1
    15     4     1    2
    16    15    10    1
    17    10    11   ar
    18     7     1    1
    19     7    12   ar
    20     1     2    1
    21    18     2    1
    22    18    19   ar
    23    20    25    1
    24    20    19   ar
    25     2     3    2
    26    19    24    1
    27    11    12   ar
    28    11    16    1
    29    12    17    1
