@<TRIPOS>MOLECULE
GS-319-0.out
 23 23 0 0 0
SMALL
MULLIKEN_CHARGES
****
Gaussian 16 # wB97XD def2tzvp, opt=(calcfc, maxcycles=70, maxstep=8), freq=noraman
@<TRIPOS>ATOM
      1 C           2.2655    0.2004   -0.0432 C.2     1  UNL1       -0.0524
      2 C           0.9044   -0.4213   -0.1832 C.2     1  UNL1        0.4512
      3 O           0.7904   -1.5899   -0.5097 O.2     1  UNL1       -0.4683
      4 C           3.3781   -0.4574    0.2667 C.2     1  UNL1       -0.1263
      5 H           4.2872    0.1321    0.3189 H       1  UNL1        0.1639
      6 C           3.5356   -1.9076    0.5734 C.3     1  UNL1       -0.3354
      7 H           4.2086   -2.0220    1.4245 H       1  UNL1        0.1393
      8 H           2.5919   -2.4025    0.7787 H       1  UNL1        0.1403
      9 H           4.0071   -2.4113   -0.2749 H       1  UNL1        0.1463
     10 CL          2.3640    1.9338   -0.3075 Cl      1  UNL1       -0.1213
     11 N          -0.1349    0.4029    0.0952 N.am    1  UNL1       -0.2615
     12 C          -1.5137    0.1334    0.0633 C.ar    1  UNL1        0.3045
     13 C          -2.3660    1.1889    0.3926 C.ar    1  UNL1       -0.2968
     14 C          -3.7369    1.0107    0.3862 C.ar    1  UNL1       -0.1002
     15 C          -4.2820   -0.2218    0.0511 C.ar    1  UNL1       -0.1835
     16 C          -3.4348   -1.2682   -0.2749 C.ar    1  UNL1       -0.1119
     17 C          -2.0559   -1.1054   -0.2720 C.ar    1  UNL1       -0.2862
     18 H           0.1084    1.3475    0.3479 H       1  UNL1        0.2491
     19 H          -1.9483    2.1537    0.6554 H       1  UNL1        0.1468
     20 H          -4.3815    1.8410    0.6446 H       1  UNL1        0.1473
     21 H          -5.3549   -0.3624    0.0455 H       1  UNL1        0.1444
     22 H          -3.8459   -2.2349   -0.5377 H       1  UNL1        0.1453
     23 H          -1.4070   -1.9270   -0.5256 H       1  UNL1        0.1654
@<TRIPOS>BOND
     1    22    16    1
     2    23    17    1
     3     3     2    2
     4    10     1    1
     5    16    17   ar
     6    16    15   ar
     7     9     6    1
     8    17    12   ar
     9     2     1    1
    10     2    11   am
    11     1     4    2
    12    21    15    1
    13    15    14   ar
    14    12    11    1
    15    12    13   ar
    16    11    18    1
    17     4     5    1
    18     4     6    1
    19    14    13   ar
    20    14    20    1
    21    13    19    1
    22     6     8    1
    23     6     7    1
