@<TRIPOS>MOLECULE
GS-379-1.out
 13 12 0 0 0
SMALL
MULLIKEN_CHARGES
****
Gaussian 16 # wB97XD def2tzvp, opt=(calcfc, maxcycles=70, maxstep=1), freq=noraman
@<TRIPOS>ATOM
      1 C           0.4278    0.7218    0.0878 C.2     1  UNL1       -0.0782
      2 C           1.0006   -0.6589   -0.0909 C.2     1  UNL1        0.3145
      3 O           1.6861   -0.9218   -1.0674 O.2     1  UNL1       -0.4612
      4 C          -0.8695    0.9821    0.0513 C.2     1  UNL1       -0.0939
      5 H          -1.2655    1.9845    0.1315 H       1  UNL1        0.1792
      6 CL         -2.1125   -0.2100   -0.1665 Cl      1  UNL1       -0.0991
      7 C           1.4426    1.8175    0.2295 C.3     1  UNL1       -0.3238
      8 H           2.1076    1.8212   -0.6358 H       1  UNL1        0.1437
      9 H           0.9633    2.7917    0.3095 H       1  UNL1        0.1359
     10 H           2.0581    1.6560    1.1172 H       1  UNL1        0.1437
     11 N           0.7542   -1.5316    0.8970 N.am    1  UNL1       -0.4419
     12 H           1.1073   -2.4711    0.8279 H       1  UNL1        0.2833
     13 H           0.1653   -1.2924    1.6741 H       1  UNL1        0.2979
@<TRIPOS>BOND
     1     3     2    2
     2     8     7    1
     3     6     4    1
     4     2     1    1
     5     2    11   am
     6     4     1    2
     7     4     5    1
     8     1     7    1
     9     7     9    1
    10     7    10    1
    11    12    11    1
    12    11    13    1
