@<TRIPOS>MOLECULE
GS-391-0.out
 20 20 0 0 0
SMALL
MULLIKEN_CHARGES
****
Gaussian 16 # wB97XD def2tzvp, opt=(calcfc, maxcycles=70, maxstep=8), freq=noraman
@<TRIPOS>ATOM
      1 C           1.6861    0.2144    0.0501 C.2     1  UNL1       -0.1360
      2 C           0.3176   -0.1885    0.5410 C.2     1  UNL1        0.4305
      3 O           0.1867   -0.7365    1.6171 O.2     1  UNL1       -0.4366
      4 C           2.1437    1.4510   -0.0483 C.2     1  UNL1       -0.0919
      5 H           3.1513    1.6871   -0.3570 H       1  UNL1        0.2027
      6 CL          1.1861    2.8331    0.3342 Cl      1  UNL1       -0.0572
      7 BR          2.8266   -1.2372   -0.3455 Br      1  UNL1       -0.0185
      8 N          -0.6719    0.1074   -0.3296 N.am    1  UNL1       -0.2711
      9 C          -2.0594   -0.0949   -0.1979 C.ar    1  UNL1        0.3096
     10 C          -2.8603    0.3397   -1.2535 C.ar    1  UNL1       -0.2934
     11 C          -4.2324    0.1772   -1.1999 C.ar    1  UNL1       -0.0985
     12 C          -4.8244   -0.4194   -0.0946 C.ar    1  UNL1       -0.1806
     13 C          -4.0252   -0.8499    0.9520 C.ar    1  UNL1       -0.1092
     14 C          -2.6463   -0.6946    0.9129 C.ar    1  UNL1       -0.2887
     15 H          -0.3821    0.5506   -1.1868 H       1  UNL1        0.2828
     16 H          -2.4041    0.8067   -2.1185 H       1  UNL1        0.1482
     17 H          -4.8408    0.5197   -2.0270 H       1  UNL1        0.1487
     18 H          -5.8981   -0.5464   -0.0519 H       1  UNL1        0.1457
     19 H          -4.4746   -1.3167    1.8194 H       1  UNL1        0.1470
     20 H          -2.0331   -1.0332    1.7318 H       1  UNL1        0.1665
@<TRIPOS>BOND
     1    16    10    1
     2    17    11    1
     3    10    11   ar
     4    10     9   ar
     5    11    12   ar
     6    15     8    1
     7     5     4    1
     8     7     1    1
     9     8     9    1
    10     8     2   am
    11     9    14   ar
    12    12    18    1
    13    12    13   ar
    14     4     1    2
    15     4     6    1
    16     1     2    1
    17     2     3    2
    18    14    13   ar
    19    14    20    1
    20    13    19    1
