@<TRIPOS>MOLECULE
GS-364-0.out
 22 22 0 0 0
SMALL
MULLIKEN_CHARGES
****
Gaussian 16 # wB97XD def2tzvp, opt=(calcfc, maxcycles=70, maxstep=8), freq=noraman
@<TRIPOS>ATOM
      1 C          -0.4243    0.4385   -0.1141 C.2     1  UNL1       -0.0446
      2 C          -1.2226   -0.8282   -0.2197 C.2     1  UNL1        0.3443
      3 O          -1.8855   -1.1403   -1.1749 O.2     1  UNL1       -0.3913
      4 C          -1.0150    1.6266   -0.0832 C.2     1  UNL1       -0.0630
      5 H          -0.4580    2.5517   -0.0496 H       1  UNL1        0.1880
      6 CL         -2.7233    1.8646   -0.0662 Cl      1  UNL1       -0.0739
      7 C           1.0494    0.2997   -0.0657 C.ar    1  UNL1        0.1950
      8 C           1.8305    1.1533    0.7118 C.ar    1  UNL1       -0.2546
      9 C           3.2104    1.0261    0.7242 C.ar    1  UNL1       -0.1372
     10 C           3.8281    0.0382   -0.0290 C.ar    1  UNL1       -0.1381
     11 C           3.0572   -0.8259   -0.7936 C.ar    1  UNL1       -0.1528
     12 C           1.6781   -0.6981   -0.8104 C.ar    1  UNL1       -0.2172
     13 H           1.3564    1.9073    1.3271 H       1  UNL1        0.1630
     14 H           3.8036    1.6942    1.3352 H       1  UNL1        0.1479
     15 H           4.9056   -0.0635   -0.0136 H       1  UNL1        0.1488
     16 H           3.5305   -1.6022   -1.3809 H       1  UNL1        0.1479
     17 H           1.0879   -1.3734   -1.4190 H       1  UNL1        0.1538
     18 O          -1.0746   -1.5740    0.8663 O.3     1  UNL1       -0.2564
     19 C          -1.7472   -2.8387    0.8703 C.3     1  UNL1       -0.2009
     20 H          -1.3889   -3.4572    0.0487 H       1  UNL1        0.1446
     21 H          -1.5042   -3.2961    1.8241 H       1  UNL1        0.1519
     22 H          -2.8228   -2.6947    0.7799 H       1  UNL1        0.1447
@<TRIPOS>BOND
     1    17    12    1
     2    16    11    1
     3     3     2    2
     4    12    11   ar
     5    12     7   ar
     6    11    10   ar
     7     2     1    1
     8     2    18    1
     9     1     4    2
    10     1     7    1
    11     4     6    1
    12     4     5    1
    13     7     8   ar
    14    10    15    1
    15    10     9   ar
    16    20    19    1
    17     8     9   ar
    18     8    13    1
    19     9    14    1
    20    22    19    1
    21    18    19    1
    22    19    21    1
