@<TRIPOS>MOLECULE
GS-344-0.out
 21 21 0 0 0
SMALL
MULLIKEN_CHARGES
****
Gaussian 16 # wB97XD def2tzvp, opt=(calcfc, maxcycles=70, maxstep=8), freq=noraman
@<TRIPOS>ATOM
      1 C          -1.0558    1.3540    0.3680 C.2     1  UNL1       -0.1217
      2 C           0.0422    1.1342   -0.6405 C.2     1  UNL1        0.3878
      3 O          -0.0836    1.5986   -1.7531 O.2     1  UNL1       -0.3803
      4 C          -1.9796    0.4457    0.6258 C.2     1  UNL1       -0.1291
      5 H          -2.7985    0.6070    1.3117 H       1  UNL1        0.1835
      6 BR         -2.0184   -1.2695   -0.1742 Br      1  UNL1       -0.0745
      7 C          -1.0593    2.7071    1.0173 C.3     1  UNL1       -0.3308
      8 H          -1.1292    3.4865    0.2559 H       1  UNL1        0.1520
      9 H          -1.8951    2.8108    1.7073 H       1  UNL1        0.1407
     10 H          -0.1287    2.8675    1.5670 H       1  UNL1        0.1496
     11 C           1.2664    0.4068   -0.2163 C.ar    1  UNL1        0.0392
     12 C           2.2823    0.1935   -1.1477 C.ar    1  UNL1       -0.2181
     13 C           3.4344   -0.4747   -0.7777 C.ar    1  UNL1       -0.1164
     14 C           3.5831   -0.9309    0.5272 C.ar    1  UNL1       -0.1251
     15 C           2.5782   -0.7192    1.4598 C.ar    1  UNL1       -0.1439
     16 C           1.4209   -0.0534    1.0894 C.ar    1  UNL1       -0.1941
     17 H           2.1536    0.5561   -2.1590 H       1  UNL1        0.1492
     18 H           4.2198   -0.6419   -1.5031 H       1  UNL1        0.1510
     19 H           4.4861   -1.4535    0.8163 H       1  UNL1        0.1532
     20 H           2.6950   -1.0742    2.4752 H       1  UNL1        0.1510
     21 H           0.6352    0.1058    1.8167 H       1  UNL1        0.1766
@<TRIPOS>BOND
     1    17    12    1
     2     3     2    2
     3    18    13    1
     4    12    13   ar
     5    12    11   ar
     6    13    14   ar
     7     2    11    1
     8     2     1    1
     9    11    16   ar
    10     6     4    1
    11     8     7    1
    12     1     4    2
    13     1     7    1
    14    14    19    1
    15    14    15   ar
    16     4     5    1
    17     7    10    1
    18     7     9    1
    19    16    15   ar
    20    16    21    1
    21    15    20    1
