@<TRIPOS>MOLECULE
GS-303-0.out
 26 26 0 0 0
SMALL
MULLIKEN_CHARGES
****
Gaussian 16 # wB97XD def2tzvp, opt=(calcfc, maxcycles=70, maxstep=8), freq=noraman
@<TRIPOS>ATOM
      1 C           2.5917   -0.1930    0.2339 C.2     1  UNL1       -0.0987
      2 C           1.2001   -0.6569   -0.0909 C.2     1  UNL1        0.4044
      3 O           1.0023   -1.7204   -0.6568 O.2     1  UNL1       -0.4743
      4 C           3.0792    0.9689   -0.1963 C.2     1  UNL1       -0.1309
      5 H           4.1091    1.1943    0.0681 H       1  UNL1        0.1359
      6 C           2.4031    2.0054   -1.0376 C.3     1  UNL1       -0.3687
      7 H           2.2504    2.9247   -0.4656 H       1  UNL1        0.1448
      8 H           3.0411    2.2659   -1.8845 H       1  UNL1        0.1398
      9 H           1.4387    1.6810   -1.4253 H       1  UNL1        0.1361
     10 C           3.4058   -1.1868    1.0121 C.3     1  UNL1       -0.3505
     11 H           3.4832   -2.1288    0.4660 H       1  UNL1        0.1359
     12 H           4.4099   -0.8057    1.1943 H       1  UNL1        0.1287
     13 H           2.9385   -1.4088    1.9747 H       1  UNL1        0.1349
     14 N           0.2148    0.1803    0.3310 N.am    1  UNL1       -0.2775
     15 C          -1.1778    0.0771    0.1791 C.ar    1  UNL1        0.3130
     16 C          -1.9509    1.1015    0.7283 C.ar    1  UNL1       -0.3028
     17 C          -3.3290    1.0752    0.6188 C.ar    1  UNL1       -0.0978
     18 C          -3.9605    0.0284   -0.0399 C.ar    1  UNL1       -0.1858
     19 C          -3.1916   -0.9869   -0.5855 C.ar    1  UNL1       -0.1092
     20 C          -1.8071   -0.9747   -0.4836 C.ar    1  UNL1       -0.2961
     21 H           0.5332    0.9983    0.8244 H       1  UNL1        0.2766
     22 H          -1.4657    1.9228    1.2429 H       1  UNL1        0.1449
     23 H          -3.9116    1.8787    1.0513 H       1  UNL1        0.1464
     24 H          -5.0389    0.0068   -0.1258 H       1  UNL1        0.1436
     25 H          -3.6704   -1.8092   -1.1027 H       1  UNL1        0.1446
     26 H          -1.2174   -1.7692   -0.9102 H       1  UNL1        0.1627
@<TRIPOS>BOND
     1     8     6    1
     2     9     6    1
     3    25    19    1
     4     6     7    1
     5     6     4    1
     6    26    20    1
     7     3     2    2
     8    19    20   ar
     9    19    18   ar
    10    20    15   ar
    11     4     5    1
    12     4     1    2
    13    24    18    1
    14     2     1    1
    15     2    14   am
    16    18    17   ar
    17    15    14    1
    18    15    16   ar
    19     1    10    1
    20    14    21    1
    21    11    10    1
    22    17    16   ar
    23    17    23    1
    24    16    22    1
    25    10    12    1
    26    10    13    1
