@<TRIPOS>MOLECULE
GS-374-0.out
 16 15 0 0 0
SMALL
MULLIKEN_CHARGES
****
Gaussian 16 # wB97XD def2tzvp, opt=(calcfc, maxcycles=70, maxstep=8), freq=noraman
@<TRIPOS>ATOM
      1 C          -0.6120    0.9956    0.9098 C.2     1  UNL1       -0.2747
      2 C           0.6435    0.8526    0.1044 C.2     1  UNL1        0.3548
      3 O           1.0165    1.8273   -0.5429 O.2     1  UNL1       -0.4982
      4 C          -1.7932    0.4868    0.6136 C.2     1  UNL1       -0.0790
      5 H          -2.6918    0.7137    1.1680 H       1  UNL1        0.1949
      6 CL         -2.0644   -0.6051   -0.7043 Cl      1  UNL1       -0.0923
      7 H          -0.5562    1.6907    1.7394 H       1  UNL1        0.1838
      8 N           1.3072   -0.3152    0.1386 N.am    1  UNL1       -0.1124
      9 C           2.5018   -0.4911   -0.6636 C.3     1  UNL1       -0.2759
     10 C           0.9404   -1.4531    0.9574 C.3     1  UNL1       -0.2975
     11 H           2.6307    0.3673   -1.3148 H       1  UNL1        0.1499
     12 H           3.3787   -0.5930   -0.0202 H       1  UNL1        0.1442
     13 H           2.4057   -1.3960   -1.2666 H       1  UNL1        0.1402
     14 H           0.1235   -1.2010    1.6260 H       1  UNL1        0.1665
     15 H           0.6398   -2.2937    0.3282 H       1  UNL1        0.1499
     16 H           1.7999   -1.7586    1.5574 H       1  UNL1        0.1459
@<TRIPOS>BOND
     1    11     9    1
     2    13     9    1
     3     6     4    1
     4     9    12    1
     5     9     8    1
     6     3     2    2
     7     2     8   am
     8     2     1    1
     9     8    10    1
    10    15    10    1
    11     4     1    2
    12     4     5    1
    13     1     7    1
    14    10    16    1
    15    10    14    1
