@<TRIPOS>MOLECULE
GS-390-0.out
 16 15 0 0 0
SMALL
MULLIKEN_CHARGES
****
Gaussian 16 # wB97XD def2tzvp, opt=(calcfc, maxcycles=70, maxstep=8), freq=noraman
@<TRIPOS>ATOM
      1 C           0.3977    0.4009   -0.1069 C.2     1  UNL1       -0.1308
      2 C          -0.6665   -0.5243   -0.6423 C.2     1  UNL1        0.3165
      3 O          -0.7130   -0.7074   -1.8515 O.2     1  UNL1       -0.4718
      4 C           0.2492    1.6926    0.1220 C.2     1  UNL1       -0.0801
      5 H           1.0525    2.3492    0.4204 H       1  UNL1        0.2014
      6 CL         -1.2854    2.4677   -0.0299 Cl      1  UNL1       -0.0662
      7 BR          2.1006   -0.3961    0.0829 Br      1  UNL1       -0.0215
      8 N          -1.4878   -1.0991    0.2479 N.am    1  UNL1       -0.0961
      9 C          -2.5388   -1.9872   -0.2111 C.3     1  UNL1       -0.2760
     10 C          -1.4292   -0.8973    1.6825 C.3     1  UNL1       -0.2928
     11 H          -2.5151   -2.0465   -1.2942 H       1  UNL1        0.1534
     12 H          -2.3941   -2.9830    0.2124 H       1  UNL1        0.1465
     13 H          -3.5093   -1.6068    0.1128 H       1  UNL1        0.1448
     14 H          -0.5781   -0.2819    1.9567 H       1  UNL1        0.1713
     15 H          -2.3426   -0.4099    2.0292 H       1  UNL1        0.1516
     16 H          -1.3373   -1.8631    2.1821 H       1  UNL1        0.1498
@<TRIPOS>BOND
     1     3     2    2
     2    11     9    1
     3     2     1    1
     4     2     8   am
     5     9    13    1
     6     9    12    1
     7     9     8    1
     8     1     7    1
     9     1     4    2
    10     6     4    1
    11     4     5    1
    12     8    10    1
    13    10    14    1
    14    10    15    1
    15    10    16    1
