@<TRIPOS>MOLECULE
GS-314-0.out
 14 13 0 0 0
SMALL
MULLIKEN_CHARGES
****
Gaussian 16 # wB97XD def2tzvp, opt=(calcfc, maxcycles=70, maxstep=8), freq=noraman
@<TRIPOS>ATOM
      1 C           0.0552   -0.3808   -0.0331 C.2     1  UNL1       -0.0101
      2 C          -0.1619    1.0983   -0.0732 C.2     1  UNL1        0.2879
      3 O           0.7317    1.8268   -0.4473 O.2     1  UNL1       -0.3906
      4 C           1.2337   -0.9909    0.0845 C.2     1  UNL1       -0.1168
      5 H           1.2159   -2.0751    0.1182 H       1  UNL1        0.1644
      6 C           2.5814   -0.3644    0.1945 C.3     1  UNL1       -0.3274
      7 H           3.2000   -0.9525    0.8730 H       1  UNL1        0.1382
      8 H           3.0725   -0.3783   -0.7826 H       1  UNL1        0.1475
      9 H           2.5410    0.6682    0.5284 H       1  UNL1        0.1405
     10 CL         -1.3945   -1.3664   -0.1041 Cl      1  UNL1       -0.1179
     11 C          -1.4915    1.6433    0.3643 C.3     1  UNL1       -0.3710
     12 H          -1.8108    1.1931    1.3049 H       1  UNL1        0.1564
     13 H          -1.4154    2.7230    0.4657 H       1  UNL1        0.1408
     14 H          -2.2516    1.4028   -0.3817 H       1  UNL1        0.1583
@<TRIPOS>BOND
     1     8     6    1
     2     3     2    2
     3    14    11    1
     4    10     1    1
     5     2     1    1
     6     2    11    1
     7     1     4    2
     8     4     5    1
     9     4     6    1
    10     6     9    1
    11     6     7    1
    12    11    13    1
    13    11    12    1
