@<TRIPOS>MOLECULE
GS-309-0.out
 16 15 0 0 0
SMALL
MULLIKEN_CHARGES
****
Gaussian 16 # wB97XD def2tzvp, opt=(calcfc, maxcycles=70, maxstep=8), freq=noraman
@<TRIPOS>ATOM
      1 C          -0.2707    0.5633    0.0086 C.2     1  UNL1       -0.0810
      2 C           1.1620    0.1425    0.1781 C.2     1  UNL1        0.4011
      3 O           1.9649    0.8746    0.7434 O.2     1  UNL1       -0.4849
      4 C          -0.6845    1.8118   -0.1746 C.2     1  UNL1       -0.1167
      5 H          -1.7530    1.9699   -0.2731 H       1  UNL1        0.1662
      6 C           0.1544    3.0405   -0.2863 C.3     1  UNL1       -0.3389
      7 H          -0.1784    3.6238   -1.1469 H       1  UNL1        0.1385
      8 H           0.0040    3.6658    0.5978 H       1  UNL1        0.1442
      9 H           1.2139    2.8218   -0.3746 H       1  UNL1        0.1393
     10 BR         -1.5808   -0.8326    0.0590 Br      1  UNL1       -0.1053
     11 N           1.5074   -1.0479   -0.3305 N.am    1  UNL1       -0.3036
     12 C           2.8607   -1.5485   -0.2368 C.3     1  UNL1       -0.2527
     13 H           0.8127   -1.6062   -0.7939 H       1  UNL1        0.2675
     14 H           2.8903   -2.5490   -0.6606 H       1  UNL1        0.1491
     15 H           3.5546   -0.9089   -0.7845 H       1  UNL1        0.1383
     16 H           3.1827   -1.5931    0.8043 H       1  UNL1        0.1387
@<TRIPOS>BOND
     1     7     6    1
     2    13    11    1
     3    15    12    1
     4    14    12    1
     5     9     6    1
     6    11    12    1
     7    11     2   am
     8     6     4    1
     9     6     8    1
    10     5     4    1
    11    12    16    1
    12     4     1    2
    13     1    10    1
    14     1     2    1
    15     2     3    2
