@<TRIPOS>MOLECULE
GS-395-0.out
 10 9 0 0 0
SMALL
MULLIKEN_CHARGES
****
Gaussian 16 # wB97XD def2tzvp, opt=(calcfc, maxcycles=70, maxstep=8), freq=noraman
@<TRIPOS>ATOM
      1 C          -0.2871   -0.3295   -0.0000 C.2     1  UNL1       -0.0038
      2 C          -0.5411    1.1531   -0.0000 C.2     1  UNL1        0.3100
      3 O           0.3871    1.9434   -0.0000 O.2     1  UNL1       -0.4452
      4 C           0.8964   -0.9376   -0.0000 C.2     1  UNL1       -0.0800
      5 H           0.9497   -2.0168   -0.0000 H       1  UNL1        0.1988
      6 CL          2.4387   -0.2018    0.0000 Cl      1  UNL1       -0.0276
      7 CL         -1.6769   -1.3867   -0.0000 Cl      1  UNL1       -0.0913
      8 N          -1.8270    1.5362    0.0000 N.am    1  UNL1       -0.4321
      9 H          -2.0283    2.5209   -0.0000 H       1  UNL1        0.2881
     10 H          -2.5892    0.8838   -0.0000 H       1  UNL1        0.2830
@<TRIPOS>BOND
     1    10     8    1
     2     9     8    1
     3     3     2    2
     4     2     1    1
     5     2     8   am
     6     5     4    1
     7     7     1    1
     8     1     4    2
     9     4     6    1
