@<TRIPOS>MOLECULE
GS-349-0.out
 13 12 0 0 0
SMALL
MULLIKEN_CHARGES
****
Gaussian 16 # wB97XD def2tzvp, opt=(calcfc, maxcycles=70, maxstep=8), freq=noraman
@<TRIPOS>ATOM
      1 C           0.4838   -0.2639    0.0209 C.2     1  UNL1       -0.1031
      2 C           0.2435    1.1835    0.3686 C.2     1  UNL1        0.3787
      3 O           0.4599    1.5972    1.4960 O.2     1  UNL1       -0.4586
      4 C          -0.4374   -1.1970   -0.1314 C.2     1  UNL1       -0.1394
      5 H          -0.2086   -2.2323   -0.3347 H       1  UNL1        0.2039
      6 BR         -2.2809   -0.8466    0.0194 Br      1  UNL1       -0.0285
      7 BR          2.3132   -0.7296   -0.1054 Br      1  UNL1       -0.0273
      8 N          -0.1932    1.9392   -0.6421 N.am    1  UNL1       -0.3022
      9 C          -0.4897    3.3464   -0.4729 C.3     1  UNL1       -0.2519
     10 H          -0.3521    1.5079   -1.5359 H       1  UNL1        0.2889
     11 H          -0.7832    3.7561   -1.4354 H       1  UNL1        0.1530
     12 H          -1.3035    3.4882    0.2395 H       1  UNL1        0.1432
     13 H           0.3883    3.8806   -0.1093 H       1  UNL1        0.1433
@<TRIPOS>BOND
     1    10     8    1
     2    11     9    1
     3     8     9    1
     4     8     2   am
     5     9    13    1
     6     9    12    1
     7     5     4    1
     8     4     6    1
     9     4     1    2
    10     7     1    1
    11     1     2    1
    12     2     3    2
