@<TRIPOS>MOLECULE
GS-336-0.out
 18 18 0 0 0
SMALL
MULLIKEN_CHARGES
****
Gaussian 16 # wB97XD def2tzvp, opt=(calcfc, maxcycles=70, maxstep=8), freq=noraman
@<TRIPOS>ATOM
      1 C           0.6173    0.8027    0.8951 C.2     1  UNL1       -0.3248
      2 C          -0.2046   -0.3680    0.4857 C.2     1  UNL1        0.3543
      3 O           0.2691   -1.4837    0.4179 O.2     1  UNL1       -0.3861
      4 C           1.9013    1.0111    0.6430 C.2     1  UNL1       -0.0744
      5 H           2.4061    1.9006    0.9909 H       1  UNL1        0.1986
      6 BR          3.0442   -0.0923   -0.3611 Br      1  UNL1       -0.0318
      7 H           0.1144    1.5819    1.4561 H       1  UNL1        0.1961
      8 C          -1.6456   -0.1224    0.1878 C.ar    1  UNL1        0.1092
      9 C          -2.5180   -1.2098    0.1628 C.ar    1  UNL1       -0.1935
     10 C          -3.8568   -1.0240   -0.1300 C.ar    1  UNL1       -0.1222
     11 C          -4.3346    0.2495   -0.4150 C.ar    1  UNL1       -0.1295
     12 C          -3.4714    1.3351   -0.4028 C.ar    1  UNL1       -0.1404
     13 C          -2.1321    1.1520   -0.0958 C.ar    1  UNL1       -0.2231
     14 H          -2.1331   -2.1972    0.3808 H       1  UNL1        0.1508
     15 H          -4.5309   -1.8706   -0.1379 H       1  UNL1        0.1503
     16 H          -5.3819    0.3945   -0.6475 H       1  UNL1        0.1523
     17 H          -3.8406    2.3261   -0.6319 H       1  UNL1        0.1510
     18 H          -1.4670    2.0058   -0.0986 H       1  UNL1        0.1631
@<TRIPOS>BOND
     1    16    11    1
     2    17    12    1
     3    11    12   ar
     4    11    10   ar
     5    12    13   ar
     6     6     4    1
     7    15    10    1
     8    10     9   ar
     9    18    13    1
    10    13     8   ar
    11     9     8   ar
    12     9    14    1
    13     8     2    1
    14     3     2    2
    15     2     1    1
    16     4     1    2
    17     4     5    1
    18     1     7    1
