@<TRIPOS>MOLECULE
GS-34-1.out
 31 32 0 0 0
SMALL
MULLIKEN_CHARGES
****
Gaussian 16 # wB97XD def2tzvp, opt=(maxcycles=70, maxstep=1), freq=noraman, scrf=(
@<TRIPOS>ATOM
      1 C           0.2478    1.5311   -0.0154 C.2     1  UNL1        0.0002
      2 C           1.6411    2.0902    0.1046 C.2     1  UNL1        0.1778
      3 O           1.9849    3.0170   -0.5916 O.2     1  UNL1       -0.3688
      4 C          -0.0818    0.2319   -0.0019 C.2     1  UNL1        0.1347
      5 C          -1.4814   -0.2611   -0.0260 C.ar    1  UNL1        0.1042
      6 C          -1.8808   -1.1603   -1.0121 C.ar    1  UNL1       -0.2184
      7 C          -3.1767   -1.6506   -1.0314 C.ar    1  UNL1       -0.1472
      8 C          -4.0801   -1.2670   -0.0503 C.ar    1  UNL1       -0.1313
      9 C          -3.6829   -0.3879    0.9473 C.ar    1  UNL1       -0.1280
     10 C          -2.3924    0.1170    0.9570 C.ar    1  UNL1       -0.2477
     11 H          -1.1727   -1.4732   -1.7697 H       1  UNL1        0.1574
     12 H          -3.4793   -2.3389   -1.8101 H       1  UNL1        0.1456
     13 H          -5.0898   -1.6572   -0.0594 H       1  UNL1        0.1480
     14 H          -4.3793   -0.0946    1.7224 H       1  UNL1        0.1460
     15 H          -2.0842    0.8001    1.7381 H       1  UNL1        0.1604
     16 C           0.9715   -0.8125   -0.0192 C.ar    1  UNL1        0.0881
     17 C           0.9276   -1.8629    0.8982 C.ar    1  UNL1       -0.1814
     18 C           1.9169   -2.8297    0.9015 C.ar    1  UNL1       -0.1535
     19 C           2.9494   -2.7754   -0.0275 C.ar    1  UNL1       -0.1156
     20 C           2.9835   -1.7526   -0.9618 C.ar    1  UNL1       -0.1467
     21 C           1.9980   -0.7764   -0.9592 C.ar    1  UNL1       -0.2200
     22 H           0.1218   -1.9088    1.6204 H       1  UNL1        0.1599
     23 H           1.8832   -3.6308    1.6286 H       1  UNL1        0.1469
     24 H           3.7192   -3.5364   -0.0271 H       1  UNL1        0.1496
     25 H           3.7747   -1.7144   -1.6993 H       1  UNL1        0.1478
     26 H           2.0171    0.0113   -1.7021 H       1  UNL1        0.1683
     27 CL         -0.9460    2.7740   -0.2645 Cl      1  UNL1       -0.0854
     28 C           2.5564    1.5498    1.1743 C.3     1  UNL1       -0.3645
     29 H           2.7424    2.3716    1.8691 H       1  UNL1        0.1649
     30 H           2.1420    0.7080    1.7203 H       1  UNL1        0.1520
     31 H           3.5101    1.2678    0.7293 H       1  UNL1        0.1564
@<TRIPOS>BOND
     1    12     7    1
     2    11     6    1
     3    26    21    1
     4    25    20    1
     5     7     6   ar
     6     7     8   ar
     7     6     5   ar
     8    20    21   ar
     9    20    19   ar
    10    21    16   ar
    11     3     2    2
    12    27     1    1
    13    13     8    1
    14     8     9   ar
    15    19    24    1
    16    19    18   ar
    17     5     4    1
    18     5    10   ar
    19    16     4    1
    20    16    17   ar
    21     1     4    2
    22     1     2    1
    23     2    28    1
    24    31    28    1
    25    17    18   ar
    26    17    22    1
    27    18    23    1
    28     9    10   ar
    29     9    14    1
    30    10    15    1
    31    28    30    1
    32    28    29    1
