@<TRIPOS>MOLECULE
GS-394-0.out
 11 10 0 0 0
SMALL
MULLIKEN_CHARGES
****
Gaussian 16 # wB97XD def2tzvp, opt=(calcfc, maxcycles=70, maxstep=8), freq=noraman
@<TRIPOS>ATOM
      1 C          -0.2536   -0.3593   -0.0493 C.2     1  UNL1       -0.0172
      2 C          -0.5559    1.1116   -0.0767 C.2     1  UNL1        0.2745
      3 O           0.2965    1.8914   -0.4303 O.2     1  UNL1       -0.3619
      4 C           0.9477   -0.9283    0.0295 C.2     1  UNL1       -0.0807
      5 H           1.0469   -2.0035    0.0719 H       1  UNL1        0.2003
      6 CL          2.4486   -0.1143    0.1152 Cl      1  UNL1       -0.0299
      7 CL         -1.6199   -1.4400   -0.0852 Cl      1  UNL1       -0.0796
      8 C          -1.9232    1.5592    0.3497 C.3     1  UNL1       -0.3732
      9 H          -2.2098    1.0960    1.2946 H       1  UNL1        0.1607
     10 H          -1.9248    2.6421    0.4423 H       1  UNL1        0.1447
     11 H          -2.6619    1.2571   -0.3951 H       1  UNL1        0.1622
@<TRIPOS>BOND
     1     3     2    2
     2    11     8    1
     3     7     1    1
     4     2     1    1
     5     2     8    1
     6     1     4    2
     7     4     5    1
     8     4     6    1
     9     8    10    1
    10     8     9    1
