@<TRIPOS>MOLECULE
GS-339-0.out
 13 12 0 0 0
SMALL
MULLIKEN_CHARGES
****
Gaussian 16 # wB97XD def2tzvp, opt=(calcfc, maxcycles=70, maxstep=8), freq=noraman
@<TRIPOS>ATOM
      1 C           1.0228    0.7258    0.0769 C.2     1  UNL1       -0.0817
      2 C           1.4603   -0.7040   -0.1049 C.2     1  UNL1        0.3178
      3 O           1.9718   -1.0662   -1.1531 O.2     1  UNL1       -0.4578
      4 C          -0.2450    1.1018    0.0940 C.2     1  UNL1       -0.1352
      5 H          -0.5474    2.1357    0.1767 H       1  UNL1        0.1830
      6 BR         -1.7235   -0.0689   -0.0646 Br      1  UNL1       -0.0711
      7 C           2.1416    1.7227    0.1605 C.3     1  UNL1       -0.3274
      8 H           2.7644    1.6559   -0.7335 H       1  UNL1        0.1458
      9 H           1.7595    2.7382    0.2492 H       1  UNL1        0.1377
     10 H           2.7780    1.5100    1.0222 H       1  UNL1        0.1448
     11 N           1.2994   -1.5037    0.9593 N.am    1  UNL1       -0.4380
     12 H           1.5720   -2.4704    0.9000 H       1  UNL1        0.2836
     13 H           0.8486   -1.1788    1.7956 H       1  UNL1        0.2985
@<TRIPOS>BOND
     1     3     2    2
     2     8     7    1
     3     2     1    1
     4     2    11   am
     5     6     4    1
     6     1     4    2
     7     1     7    1
     8     4     5    1
     9     7     9    1
    10     7    10    1
    11    12    11    1
    12    11    13    1
