@<TRIPOS>MOLECULE
GS-343-0.out
 23 23 0 0 0
SMALL
MULLIKEN_CHARGES
****
Gaussian 16 # wB97XD def2tzvp, opt=(calcfc, maxcycles=70, maxstep=8), freq=noraman
@<TRIPOS>ATOM
      1 C          -1.8069    1.2883    0.3705 C.2     1  UNL1       -0.1471
      2 C          -0.4194    1.2063   -0.2100 C.2     1  UNL1        0.4366
      3 O          -0.1385    1.8245   -1.2213 O.2     1  UNL1       -0.4569
      4 C          -2.6541    0.2719    0.3740 C.2     1  UNL1       -0.1262
      5 H          -3.6636    0.3550    0.7496 H       1  UNL1        0.1829
      6 BR         -2.2800   -1.4547   -0.3037 Br      1  UNL1       -0.0682
      7 C          -2.2001    2.6452    0.8769 C.3     1  UNL1       -0.3376
      8 H          -2.1027    3.3809    0.0766 H       1  UNL1        0.1485
      9 H          -3.2273    2.6495    1.2370 H       1  UNL1        0.1381
     10 H          -1.5406    2.9542    1.6908 H       1  UNL1        0.1471
     11 N           0.4411    0.4485    0.5108 N.am    1  UNL1       -0.2735
     12 C           1.7928    0.1500    0.2622 C.ar    1  UNL1        0.3132
     13 C           2.4266   -0.7056    1.1638 C.ar    1  UNL1       -0.2996
     14 C           3.7551   -1.0466    0.9878 C.ar    1  UNL1       -0.0976
     15 C           4.4720   -0.5410   -0.0884 C.ar    1  UNL1       -0.1841
     16 C           3.8402    0.3085   -0.9822 C.ar    1  UNL1       -0.1084
     17 C           2.5072    0.6605   -0.8189 C.ar    1  UNL1       -0.2934
     18 H           0.0459    0.0053    1.3247 H       1  UNL1        0.2776
     19 H           1.8736   -1.1050    2.0059 H       1  UNL1        0.1467
     20 H           4.2310   -1.7120    1.6968 H       1  UNL1        0.1475
     21 H           5.5115   -0.8076   -0.2269 H       1  UNL1        0.1445
     22 H           4.3874    0.7100   -1.8259 H       1  UNL1        0.1457
     23 H           2.0246    1.3221   -1.5194 H       1  UNL1        0.1642
@<TRIPOS>BOND
     1    22    16    1
     2    23    17    1
     3     3     2    2
     4    16    17   ar
     5    16    15   ar
     6    17    12   ar
     7     6     4    1
     8    21    15    1
     9     2     1    1
    10     2    11   am
    11    15    14   ar
    12     8     7    1
    13    12    11    1
    14    12    13   ar
    15     1     4    2
    16     1     7    1
    17     4     5    1
    18    11    18    1
    19     7     9    1
    20     7    10    1
    21    14    13   ar
    22    14    20    1
    23    13    19    1
