@<TRIPOS>MOLECULE
GS-393-0.out
 8 7 0 0 0
SMALL
MULLIKEN_CHARGES
****
Gaussian 16 # wB97XD def2tzvp, opt=(calcfc, maxcycles=70, maxstep=8), freq=noraman
@<TRIPOS>ATOM
      1 C           0.3135   -0.1277    0.0000 C.2     1  UNL1        0.0118
      2 C           0.4637    1.3428   -0.0000 C.2     1  UNL1        0.1376
      3 O           1.5270    1.9062    0.0000 O.2     1  UNL1       -0.3421
      4 C          -0.8528   -0.7724    0.0000 C.2     1  UNL1       -0.0412
      5 H          -0.9098   -1.8516   -0.0000 H       1  UNL1        0.2052
      6 CL         -2.3845   -0.0051    0.0000 Cl      1  UNL1       -0.0311
      7 CL          1.7747   -1.0510    0.0000 Cl      1  UNL1       -0.0691
      8 H          -0.4849    1.8994   -0.0000 H       1  UNL1        0.1290
@<TRIPOS>BOND
     1     2     8    1
     2     2     1    1
     3     2     3    2
     4     5     4    1
     5     1     4    2
     6     1     7    1
     7     4     6    1
