@<TRIPOS>MOLECULE
GS-327-0.out
 30 31 0 0 0
SMALL
MULLIKEN_CHARGES
****
Gaussian 16 # wB97XD def2tzvp, opt=(calcfc, maxcycles=70, maxstep=8), freq=noraman
@<TRIPOS>ATOM
      1 C           1.2611   -0.3879    0.1567 C.2     1  UNL1       -0.1142
      2 C          -0.1243   -0.0595    0.6613 C.2     1  UNL1        0.3623
      3 O          -0.3891   -0.1007    1.8485 O.2     1  UNL1       -0.4451
      4 C           1.6116   -1.6336   -0.1316 C.2     1  UNL1       -0.0857
      5 H           2.6098   -1.9134   -0.4343 H       1  UNL1        0.1900
      6 BR          0.4329   -3.1022   -0.0522 Br      1  UNL1       -0.0492
      7 C           2.2109    0.7436    0.0341 C.ar    1  UNL1        0.1677
      8 C           3.1681    0.7664   -0.9805 C.ar    1  UNL1       -0.2488
      9 C           4.0614    1.8203   -1.0812 C.ar    1  UNL1       -0.1413
     10 C           4.0050    2.8725   -0.1784 C.ar    1  UNL1       -0.1348
     11 C           3.0459    2.8662    0.8239 C.ar    1  UNL1       -0.1478
     12 C           2.1524    1.8123    0.9290 C.ar    1  UNL1       -0.2261
     13 H           3.2006   -0.0336   -1.7090 H       1  UNL1        0.1625
     14 H           4.7960    1.8247   -1.8762 H       1  UNL1        0.1474
     15 H           4.7001    3.6982   -0.2614 H       1  UNL1        0.1485
     16 H           2.9918    3.6852    1.5296 H       1  UNL1        0.1472
     17 H           1.4138    1.8132    1.7206 H       1  UNL1        0.1544
     18 N          -0.9783    0.3026   -0.3245 N.am    1  UNL1       -0.2438
     19 C          -2.3285    0.6903   -0.2383 C.ar    1  UNL1        0.3071
     20 C          -2.9844    0.9643   -1.4385 C.ar    1  UNL1       -0.2985
     21 C          -4.3111    1.3543   -1.4359 C.ar    1  UNL1       -0.0985
     22 C          -5.0035    1.4764   -0.2386 C.ar    1  UNL1       -0.1825
     23 C          -4.3492    1.2037    0.9518 C.ar    1  UNL1       -0.1109
     24 C          -3.0174    0.8118    0.9658 C.ar    1  UNL1       -0.2870
     25 H          -0.5989    0.2710   -1.2576 H       1  UNL1        0.2767
     26 H          -2.4505    0.8707   -2.3769 H       1  UNL1        0.1474
     27 H          -4.8051    1.5632   -2.3762 H       1  UNL1        0.1477
     28 H          -6.0419    1.7809   -0.2360 H       1  UNL1        0.1448
     29 H          -4.8771    1.2953    1.8927 H       1  UNL1        0.1460
     30 H          -2.5173    0.6019    1.8969 H       1  UNL1        0.1646
@<TRIPOS>BOND
     1    26    20    1
     2    27    21    1
     3    14     9    1
     4    13     8    1
     5    20    21   ar
     6    20    19   ar
     7    21    22   ar
     8    25    18    1
     9     9     8   ar
    10     9    10   ar
    11     8     7   ar
    12     5     4    1
    13    18    19    1
    14    18     2   am
    15    15    10    1
    16    22    28    1
    17    22    23   ar
    18    19    24   ar
    19    10    11   ar
    20     4     6    1
    21     4     1    2
    22     7     1    1
    23     7    12   ar
    24     1     2    1
    25     2     3    2
    26    11    12   ar
    27    11    16    1
    28    12    17    1
    29    23    24   ar
    30    23    29    1
    31    24    30    1
