@<TRIPOS>MOLECULE
GS-300-0.out
 18 17 0 0 0
SMALL
MULLIKEN_CHARGES
****
Gaussian 16 # wB97XD def2tzvp, opt=(calcfc, maxcycles=50, maxstep=10), freq=norama
@<TRIPOS>ATOM
      1 C           0.7111    0.6611    0.0571 C.2     1  UNL1       -0.0969
      2 C          -0.4540   -0.2626    0.1263 C.2     1  UNL1        0.4415
      3 O          -0.4267   -1.4236    0.4656 O.2     1  UNL1       -0.4409
      4 C           1.9566    0.1984   -0.0816 C.2     1  UNL1       -0.1008
      5 H           2.7392    0.9522   -0.1151 H       1  UNL1        0.1398
      6 C           2.4438   -1.2052   -0.2189 C.3     1  UNL1       -0.3370
      7 H           3.2331   -1.2459   -0.9718 H       1  UNL1        0.1315
      8 H           2.8906   -1.5371    0.7231 H       1  UNL1        0.1383
      9 H           1.6548   -1.9050   -0.4778 H       1  UNL1        0.1338
     10 C           0.4219    2.1363    0.1304 C.3     1  UNL1       -0.3386
     11 H          -0.1528    2.3836    1.0251 H       1  UNL1        0.1322
     12 H           1.3522    2.7028    0.1513 H       1  UNL1        0.1256
     13 H          -0.1644    2.4676   -0.7282 H       1  UNL1        0.1304
     14 O          -1.5874    0.3533   -0.2246 O.3     1  UNL1       -0.2787
     15 C          -2.7785   -0.4307   -0.1814 C.3     1  UNL1       -0.1993
     16 H          -3.5812    0.2349   -0.4851 H       1  UNL1        0.1451
     17 H          -2.7073   -1.2736   -0.8682 H       1  UNL1        0.1366
     18 H          -2.9562   -0.8010    0.8277 H       1  UNL1        0.1374
@<TRIPOS>BOND
     1     7     6    1
     2    17    15    1
     3    13    10    1
     4    16    15    1
     5     9     6    1
     6    14    15    1
     7    14     2    1
     8     6     4    1
     9     6     8    1
    10    15    18    1
    11     5     4    1
    12     4     1    2
    13     1     2    1
    14     1    10    1
    15     2     3    2
    16    10    12    1
    17    10    11    1
