@<TRIPOS>MOLECULE
GS-354-0.out
 11 10 0 0 0
SMALL
MULLIKEN_CHARGES
****
Gaussian 16 # wB97XD def2tzvp, opt=(calcfc, maxcycles=70, maxstep=8), freq=noraman
@<TRIPOS>ATOM
      1 C          -0.8100   -0.3637   -0.0729 C.2     1  UNL1       -0.0217
      2 C          -1.1238    1.1071   -0.1016 C.2     1  UNL1        0.2890
      3 O          -0.3154    1.8815   -0.5543 O.2     1  UNL1       -0.3586
      4 C           0.3912   -0.9282   -0.0057 C.2     1  UNL1       -0.1320
      5 H           0.4938   -2.0024    0.0416 H       1  UNL1        0.2027
      6 BR          2.0391   -0.0504    0.0729 Br      1  UNL1        0.0035
      7 CL         -2.1811   -1.4408   -0.0882 Cl      1  UNL1       -0.0788
      8 C          -2.4453    1.5553    0.4491 C.3     1  UNL1       -0.3747
      9 H          -2.6496    1.0836    1.4109 H       1  UNL1        0.1616
     10 H          -2.4352    2.6375    0.5502 H       1  UNL1        0.1457
     11 H          -3.2474    1.2630   -0.2315 H       1  UNL1        0.1633
@<TRIPOS>BOND
     1     3     2    2
     2    11     8    1
     3     2     1    1
     4     2     8    1
     5     7     1    1
     6     1     4    2
     7     4     5    1
     8     4     6    1
     9     8    10    1
    10     8     9    1
