@<TRIPOS>MOLECULE
GS-324-0.out
 22 22 0 0 0
SMALL
MULLIKEN_CHARGES
****
Gaussian 16 # wB97XD def2tzvp, opt=(calcfc, maxcycles=70, maxstep=8), freq=noraman
@<TRIPOS>ATOM
      1 C           0.0191   -0.1617   -0.1094 C.2     1  UNL1       -0.0368
      2 C          -0.5011    1.2416   -0.2381 C.2     1  UNL1        0.3546
      3 O          -0.8956    1.7252   -1.2675 O.2     1  UNL1       -0.3892
      4 C          -0.8033   -1.2006   -0.0662 C.2     1  UNL1       -0.0991
      5 H          -0.4569   -2.2224   -0.0208 H       1  UNL1        0.1911
      6 BR         -2.6809   -1.0614   -0.0585 Br      1  UNL1       -0.0450
      7 C           1.4916   -0.3158   -0.0573 C.ar    1  UNL1        0.1727
      8 C           2.0829   -1.3219    0.7061 C.ar    1  UNL1       -0.2500
      9 C           3.4602   -1.4687    0.7280 C.ar    1  UNL1       -0.1405
     10 C           4.2669   -0.6067   -0.0012 C.ar    1  UNL1       -0.1336
     11 C           3.6879    0.4073   -0.7502 C.ar    1  UNL1       -0.1568
     12 C           2.3105    0.5544   -0.7767 C.ar    1  UNL1       -0.2155
     13 H           1.4648   -1.9800    1.3033 H       1  UNL1        0.1622
     14 H           3.9050   -2.2526    1.3275 H       1  UNL1        0.1481
     15 H           5.3432   -0.7195    0.0215 H       1  UNL1        0.1491
     16 H           4.3098    1.0872   -1.3183 H       1  UNL1        0.1481
     17 H           1.8705    1.3441   -1.3738 H       1  UNL1        0.1543
     18 O          -0.4329    1.8833    0.9182 O.3     1  UNL1       -0.2544
     19 C          -0.8624    3.2510    0.9170 C.3     1  UNL1       -0.2025
     20 H          -0.2499    3.8360    0.2326 H       1  UNL1        0.1453
     21 H          -1.9087    3.3165    0.6227 H       1  UNL1        0.1453
     22 H          -0.7318    3.5990    1.9367 H       1  UNL1        0.1527
@<TRIPOS>BOND
     1    17    12    1
     2    16    11    1
     3     3     2    2
     4    12    11   ar
     5    12     7   ar
     6    11    10   ar
     7     2     1    1
     8     2    18    1
     9     1     4    2
    10     1     7    1
    11     4     6    1
    12     4     5    1
    13     7     8   ar
    14    10    15    1
    15    10     9   ar
    16    20    19    1
    17    21    19    1
    18     8     9   ar
    19     8    13    1
    20     9    14    1
    21    19    18    1
    22    19    22    1
