@<TRIPOS>MOLECULE
GS-331-0.out
 10 9 0 0 0
SMALL
MULLIKEN_CHARGES
****
Gaussian 16 # wB97XD def2tzvp, opt=(calcfc, maxcycles=70, maxstep=8), freq=noraman
@<TRIPOS>ATOM
      1 C           1.0007    1.1066   -0.3379 C.2     1  UNL1       -0.2521
      2 C           1.8980   -0.0408   -0.0043 C.2     1  UNL1        0.3729
      3 O           2.8865    0.1572    0.6880 O.2     1  UNL1       -0.4729
      4 C          -0.3184    1.1918   -0.3024 C.2     1  UNL1       -0.1077
      5 H          -0.8320    2.1202   -0.5037 H       1  UNL1        0.1995
      6 BR         -1.5244   -0.1954    0.1261 Br      1  UNL1       -0.0540
      7 H           1.5382    2.0231   -0.5544 H       1  UNL1        0.1817
      8 N           1.5896   -1.2417   -0.5157 N.am    1  UNL1       -0.4425
      9 H           2.1727   -2.0314   -0.2973 H       1  UNL1        0.2848
     10 H           0.7757   -1.3862   -1.0854 H       1  UNL1        0.2903
@<TRIPOS>BOND
     1    10     8    1
     2     7     1    1
     3     8     9    1
     4     8     2   am
     5     5     4    1
     6     1     4    2
     7     1     2    1
     8     4     6    1
     9     2     3    2
