@<TRIPOS>MOLECULE
GS-301-0.out
 19 18 0 0 0
SMALL
MULLIKEN_CHARGES
****
Gaussian 16 # wB97XD def2tzvp, opt=(calcfc, maxcycles=70, maxstep=8), freq=noraman
@<TRIPOS>ATOM
      1 C          -0.9976   -0.4174   -0.1177 C.2     1  UNL1       -0.0689
      2 C           0.4658   -0.4471    0.2188 C.2     1  UNL1        0.3471
      3 O           0.9041   -1.1732    1.1066 O.2     1  UNL1       -0.4997
      4 C          -1.7263    0.6950   -0.0600 C.2     1  UNL1       -0.1399
      5 H          -2.7838    0.6010   -0.2943 H       1  UNL1        0.1341
      6 C          -1.2845    2.0722    0.3236 C.3     1  UNL1       -0.3620
      7 H          -1.3542    2.7506   -0.5311 H       1  UNL1        0.1403
      8 H          -1.9455    2.4720    1.0956 H       1  UNL1        0.1357
      9 H          -0.2627    2.1021    0.6987 H       1  UNL1        0.1336
     10 C          -1.5801   -1.7611   -0.4513 C.3     1  UNL1       -0.3456
     11 H          -1.4355   -2.4561    0.3781 H       1  UNL1        0.1331
     12 H          -2.6467   -1.6821   -0.6589 H       1  UNL1        0.1270
     13 H          -1.0878   -2.1957   -1.3252 H       1  UNL1        0.1326
     14 N           1.2624    0.3333   -0.5288 N.am    1  UNL1       -0.3161
     15 C           2.6914    0.4067   -0.3205 C.3     1  UNL1       -0.2512
     16 H           0.8447    0.8815   -1.2590 H       1  UNL1        0.2817
     17 H           3.1566   -0.5705   -0.4590 H       1  UNL1        0.1350
     18 H           3.1127    1.1037   -1.0405 H       1  UNL1        0.1470
     19 H           2.9205    0.7563    0.6873 H       1  UNL1        0.1363
@<TRIPOS>BOND
     1    13    10    1
     2    16    14    1
     3    18    15    1
     4    12    10    1
     5     7     6    1
     6    14    15    1
     7    14     2   am
     8    17    15    1
     9    10     1    1
    10    10    11    1
    11    15    19    1
    12     5     4    1
    13     1     4    2
    14     1     2    1
    15     4     6    1
    16     2     3    2
    17     6     9    1
    18     6     8    1
