@<TRIPOS>MOLECULE
GS-389-0.out
 13 12 0 0 0
SMALL
MULLIKEN_CHARGES
****
Gaussian 16 # wB97XD def2tzvp, opt=(calcfc, maxcycles=70, maxstep=8), freq=noraman
@<TRIPOS>ATOM
      1 C           0.2523   -0.3280    0.0280 C.2     1  UNL1       -0.1029
      2 C          -0.7034    0.7910    0.3540 C.2     1  UNL1        0.3729
      3 O          -0.6649    1.3478    1.4394 O.2     1  UNL1       -0.4611
      4 C          -0.0536   -1.6087   -0.0895 C.2     1  UNL1       -0.0920
      5 H           0.6798   -2.3791   -0.2764 H       1  UNL1        0.2010
      6 CL         -1.6652   -2.2033    0.0718 Cl      1  UNL1       -0.0619
      7 BR          2.0573    0.2103   -0.1204 Br      1  UNL1       -0.0267
      8 N          -1.5498    1.1129   -0.6276 N.am    1  UNL1       -0.3051
      9 C          -2.5443    2.1534   -0.4694 C.3     1  UNL1       -0.2517
     10 H          -1.5124    0.5967   -1.4890 H       1  UNL1        0.2886
     11 H          -3.0873    2.2574   -1.4046 H       1  UNL1        0.1528
     12 H          -3.2467    1.9007    0.3260 H       1  UNL1        0.1429
     13 H          -2.0683    3.1032   -0.2246 H       1  UNL1        0.1431
@<TRIPOS>BOND
     1    10     8    1
     2    11     9    1
     3     8     9    1
     4     8     2   am
     5     9    13    1
     6     9    12    1
     7     5     4    1
     8     7     1    1
     9     4     1    2
    10     4     6    1
    11     1     2    1
    12     2     3    2
