@<TRIPOS>MOLECULE
GS-371-0.out
 10 9 0 0 0
SMALL
MULLIKEN_CHARGES
****
Gaussian 16 # wB97XD def2tzvp, opt=(calcfc, maxcycles=70, maxstep=8), freq=noraman
@<TRIPOS>ATOM
      1 C           0.3664    1.0528    0.1570 C.2     1  UNL1       -0.2638
      2 C           1.3913   -0.0204    0.0122 C.2     1  UNL1        0.3672
      3 O           2.5423    0.3006   -0.2572 O.2     1  UNL1       -0.4793
      4 C          -0.9574    1.0294    0.1049 C.2     1  UNL1       -0.0393
      5 H          -1.5367    1.9373    0.1920 H       1  UNL1        0.1989
      6 CL         -1.9652   -0.3569   -0.1148 Cl      1  UNL1       -0.0780
      7 H           0.8121    2.0329    0.2758 H       1  UNL1        0.1738
      8 N           1.0261   -1.2994    0.1967 N.am    1  UNL1       -0.4307
      9 H           1.7245   -2.0161    0.0997 H       1  UNL1        0.2831
     10 H           0.0849   -1.5663    0.4208 H       1  UNL1        0.2682
@<TRIPOS>BOND
     1     3     2    2
     2     6     4    1
     3     2     1    1
     4     2     8   am
     5     9     8    1
     6     4     1    2
     7     4     5    1
     8     1     7    1
     9     8    10    1
