@<TRIPOS>MOLECULE
GS-347-1.out
 10 9 0 0 0
SMALL
MULLIKEN_CHARGES
****
Gaussian 16 # wB97XD def2tzvp, opt=(calcfc, maxcycles=70, maxstep=1), freq=noraman
@<TRIPOS>ATOM
      1 C          -0.4413   -0.0294    0.0049 C.2     1  UNL1       -0.0697
      2 C          -0.2897    1.4675   -0.1235 C.2     1  UNL1        0.3136
      3 O          -0.4844    2.0181   -1.1911 O.2     1  UNL1       -0.4340
      4 C           0.5358   -0.9160    0.0307 C.2     1  UNL1       -0.1310
      5 H           0.3710   -1.9819    0.0739 H       1  UNL1        0.2049
      6 BR          2.3536   -0.4331   -0.0354 Br      1  UNL1       -0.0263
      7 BR         -2.2393   -0.6145    0.0368 Br      1  UNL1       -0.0233
      8 N           0.0436    2.0969    1.0092 N.am    1  UNL1       -0.4292
      9 H           0.1684    3.0954    1.0025 H       1  UNL1        0.2907
     10 H           0.2043    1.5946    1.8641 H       1  UNL1        0.3043
@<TRIPOS>BOND
     1     3     2    2
     2     2     1    1
     3     2     8   am
     4     6     4    1
     5     1     4    2
     6     1     7    1
     7     4     5    1
     8     9     8    1
     9     8    10    1
