@<TRIPOS>MOLECULE
GS-359-0.out
 20 20 0 0 0
SMALL
MULLIKEN_CHARGES
****
Gaussian 16 # wB97XD def2tzvp, opt=(calcfc, maxcycles=70, maxstep=8), freq=noraman
@<TRIPOS>ATOM
      1 C          -1.3618    1.0220    0.2007 C.2     1  UNL1       -0.0853
      2 C          -0.1495    0.1520    0.4270 C.2     1  UNL1        0.4615
      3 O          -0.2489   -0.8942    1.0363 O.2     1  UNL1       -0.4392
      4 C          -2.5879    0.5993   -0.0719 C.2     1  UNL1       -0.1440
      5 H          -3.4003    1.2975   -0.2077 H       1  UNL1        0.2028
      6 BR         -3.1082   -1.1812   -0.3178 Br      1  UNL1       -0.0069
      7 CL         -1.1160    2.7432    0.3234 Cl      1  UNL1       -0.0767
      8 N           0.9908    0.6432   -0.1089 N.am    1  UNL1       -0.2640
      9 C           2.2869    0.0961   -0.0840 C.ar    1  UNL1        0.3077
     10 C           3.2853    0.8198   -0.7368 C.ar    1  UNL1       -0.2953
     11 C           4.5863    0.3524   -0.7581 C.ar    1  UNL1       -0.0983
     12 C           4.9121   -0.8423   -0.1298 C.ar    1  UNL1       -0.1827
     13 C           3.9186   -1.5587    0.5174 C.ar    1  UNL1       -0.1081
     14 C           2.6075   -1.1031    0.5473 C.ar    1  UNL1       -0.2871
     15 H           0.9112    1.5270   -0.5866 H       1  UNL1        0.2601
     16 H           3.0385    1.7528   -1.2298 H       1  UNL1        0.1484
     17 H           5.3485    0.9262   -1.2692 H       1  UNL1        0.1483
     18 H           5.9300   -1.2088   -0.1460 H       1  UNL1        0.1453
     19 H           4.1587   -2.4918    1.0113 H       1  UNL1        0.1465
     20 H           1.8432   -1.6694    1.0529 H       1  UNL1        0.1669
@<TRIPOS>BOND
     1    17    11    1
     2    16    10    1
     3    11    10   ar
     4    11    12   ar
     5    10     9   ar
     6    15     8    1
     7     6     4    1
     8     5     4    1
     9    18    12    1
    10    12    13   ar
    11     8     9    1
    12     8     2   am
    13     9    14   ar
    14     4     1    2
    15     1     7    1
    16     1     2    1
    17     2     3    2
    18    13    14   ar
    19    13    19    1
    20    14    20    1
