@<TRIPOS>MOLECULE
GS-306-0.out
 14 13 0 0 0
SMALL
MULLIKEN_CHARGES
****
Gaussian 16 # wB97XD def2tzvp, opt=(calcfc, maxcycles=70, maxstep=8), freq=noraman
@<TRIPOS>ATOM
      1 C           0.3335   -0.2565   -0.0100 C.2     1  UNL1       -0.0516
      2 C           0.9531    1.1030   -0.0919 C.2     1  UNL1        0.2834
      3 O           2.0489    1.2292   -0.5939 O.2     1  UNL1       -0.3857
      4 C           1.0008   -1.4007    0.1248 C.2     1  UNL1       -0.1055
      5 H           0.4129   -2.3100    0.1907 H       1  UNL1        0.1687
      6 C           2.4768   -1.5887    0.2211 C.3     1  UNL1       -0.3321
      7 H           2.6951   -2.3476    0.9736 H       1  UNL1        0.1393
      8 H           2.8575   -1.9648   -0.7325 H       1  UNL1        0.1480
      9 H           3.0086   -0.6712    0.4547 H       1  UNL1        0.1397
     10 BR         -1.5775   -0.3166   -0.0620 Br      1  UNL1       -0.0932
     11 C           0.2043    2.2800    0.4656 C.3     1  UNL1       -0.3729
     12 H          -0.2520    2.0413    1.4267 H       1  UNL1        0.1573
     13 H           0.8890    3.1186    0.5662 H       1  UNL1        0.1433
     14 H          -0.6023    2.5578   -0.2161 H       1  UNL1        0.1614
@<TRIPOS>BOND
     1     8     6    1
     2     3     2    2
     3    14    11    1
     4     2     1    1
     5     2    11    1
     6    10     1    1
     7     1     4    2
     8     4     5    1
     9     4     6    1
    10     6     9    1
    11     6     7    1
    12    11    13    1
    13    11    12    1
