@<TRIPOS>MOLECULE
GS-367-0.out
 30 31 0 0 0
SMALL
MULLIKEN_CHARGES
****
Gaussian 16 # wB97XD def2tzvp, opt=(calcfc, maxcycles=70, maxstep=10), freq=norama
@<TRIPOS>ATOM
      1 C           1.2874    0.8690    0.1307 C.2     1  UNL1       -0.1059
      2 C          -0.0938    0.5299    0.6390 C.2     1  UNL1        0.3444
      3 O          -0.3757    0.6314    1.8186 O.2     1  UNL1       -0.4455
      4 C           1.6092    2.1177   -0.1800 C.2     1  UNL1       -0.0460
      5 H           2.6009    2.4177   -0.4859 H       1  UNL1        0.1854
      6 CL          0.4860    3.4304   -0.1300 Cl      1  UNL1       -0.0796
      7 C           2.2592   -0.2440    0.0321 C.ar    1  UNL1        0.1779
      8 C           3.2322   -0.2614   -0.9675 C.ar    1  UNL1       -0.2508
      9 C           4.1455   -1.3002   -1.0424 C.ar    1  UNL1       -0.1407
     10 C           4.0933   -2.3441   -0.1297 C.ar    1  UNL1       -0.1359
     11 C           3.1184   -2.3441    0.8573 C.ar    1  UNL1       -0.1488
     12 C           2.2059   -1.3045    0.9373 C.ar    1  UNL1       -0.2240
     13 H           3.2623    0.5305   -1.7051 H       1  UNL1        0.1615
     14 H           4.8926   -1.3001   -1.8259 H       1  UNL1        0.1474
     15 H           4.8037   -3.1583   -0.1932 H       1  UNL1        0.1484
     16 H           3.0668   -3.1568    1.5705 H       1  UNL1        0.1471
     17 H           1.4554   -1.3104    1.7178 H       1  UNL1        0.1538
     18 N          -0.9252    0.0868   -0.3335 N.am    1  UNL1       -0.2434
     19 C          -2.2639   -0.3373   -0.2394 C.ar    1  UNL1        0.3061
     20 C          -2.9052   -0.6734   -1.4317 C.ar    1  UNL1       -0.2983
     21 C          -4.2193   -1.1037   -1.4206 C.ar    1  UNL1       -0.0984
     22 C          -4.9138   -1.2047   -0.2226 C.ar    1  UNL1       -0.1829
     23 C          -4.2740   -0.8705    0.9600 C.ar    1  UNL1       -0.1103
     24 C          -2.9549   -0.4377    0.9654 C.ar    1  UNL1       -0.2874
     25 H          -0.5360    0.0778   -1.2629 H       1  UNL1        0.2763
     26 H          -2.3698   -0.5962   -2.3707 H       1  UNL1        0.1473
     27 H          -4.7019   -1.3606   -2.3549 H       1  UNL1        0.1477
     28 H          -5.9424   -1.5405   -0.2133 H       1  UNL1        0.1448
     29 H          -4.8036   -0.9454    1.9015 H       1  UNL1        0.1460
     30 H          -2.4663   -0.1802    1.8907 H       1  UNL1        0.1641
@<TRIPOS>BOND
     1    26    20    1
     2    27    21    1
     3    14     9    1
     4    13     8    1
     5    20    21   ar
     6    20    19   ar
     7    21    22   ar
     8    25    18    1
     9     9     8   ar
    10     9    10   ar
    11     8     7   ar
    12     5     4    1
    13    18    19    1
    14    18     2   am
    15    19    24   ar
    16    22    28    1
    17    22    23   ar
    18    15    10    1
    19     4     6    1
    20     4     1    2
    21    10    11   ar
    22     7     1    1
    23     7    12   ar
    24     1     2    1
    25     2     3    2
    26    11    12   ar
    27    11    16    1
    28    12    17    1
    29    23    24   ar
    30    23    29    1
    31    24    30    1
