@<TRIPOS>MOLECULE
GS-325-1.out
 23 23 0 0 0
SMALL
MULLIKEN_CHARGES
****
Gaussian 16 # wB97XD def2tzvp, opt=(calcfc, maxcycles=70, maxstep=1), freq=noraman
@<TRIPOS>ATOM
      1 C           0.0523   -0.1525   -0.1066 C.2     1  UNL1       -0.0878
      2 C          -0.5131    1.2387   -0.2583 C.2     1  UNL1        0.3068
      3 O          -0.7133    1.7284   -1.3616 O.2     1  UNL1       -0.4675
      4 C          -0.7347   -1.2187   -0.0653 C.2     1  UNL1       -0.0930
      5 H          -0.3619   -2.2313   -0.0213 H       1  UNL1        0.1887
      6 BR         -2.6188   -1.1379   -0.0898 Br      1  UNL1       -0.0546
      7 C           1.5287   -0.2706   -0.0456 C.ar    1  UNL1        0.1812
      8 C           2.3351    0.6190   -0.7563 C.ar    1  UNL1       -0.2266
      9 C           3.7154    0.5047   -0.7138 C.ar    1  UNL1       -0.1472
     10 C           4.3117   -0.4935    0.0430 C.ar    1  UNL1       -0.1381
     11 C           3.5180   -1.3736    0.7647 C.ar    1  UNL1       -0.1398
     12 C           2.1378   -1.2604    0.7262 C.ar    1  UNL1       -0.2501
     13 H           1.8788    1.3955   -1.3571 H       1  UNL1        0.1526
     14 H           4.3269    1.1989   -1.2760 H       1  UNL1        0.1466
     15 H           5.3902   -0.5797    0.0778 H       1  UNL1        0.1479
     16 H           3.9747   -2.1452    1.3712 H       1  UNL1        0.1469
     17 H           1.5299   -1.9326    1.3183 H       1  UNL1        0.1614
     18 N          -0.7361    1.8850    0.8911 N.am    1  UNL1       -0.2858
     19 C          -1.2626    3.2329    0.9284 C.3     1  UNL1       -0.2556
     20 H          -0.5618    1.4027    1.7553 H       1  UNL1        0.2833
     21 H          -0.6049    3.9173    0.3916 H       1  UNL1        0.1406
     22 H          -2.2535    3.2760    0.4742 H       1  UNL1        0.1396
     23 H          -1.3333    3.5487    1.9657 H       1  UNL1        0.1505
@<TRIPOS>BOND
     1     3     2    2
     2    13     8    1
     3    14     9    1
     4     8     9   ar
     5     8     7   ar
     6     9    10   ar
     7     2     1    1
     8     2    18   am
     9     1     4    2
    10     1     7    1
    11     6     4    1
    12     4     5    1
    13     7    12   ar
    14    10    15    1
    15    10    11   ar
    16    21    19    1
    17    22    19    1
    18    12    11   ar
    19    12    17    1
    20    11    16    1
    21    18    19    1
    22    18    20    1
    23    19    23    1
