@<TRIPOS>MOLECULE
GS-350-0.out
 16 15 0 0 0
SMALL
MULLIKEN_CHARGES
****
Gaussian 16 # wB97XD def2tzvp, opt=(calcfc, maxcycles=70, maxstep=8), freq=noraman
@<TRIPOS>ATOM
      1 C           0.4548   -0.4183   -0.1026 C.2     1  UNL1       -0.1303
      2 C           0.2482    0.9749   -0.6437 C.2     1  UNL1        0.3242
      3 O           0.3021    1.1328   -1.8560 O.2     1  UNL1       -0.4699
      4 C          -0.4904   -1.3052    0.1411 C.2     1  UNL1       -0.1272
      5 H          -0.2993   -2.3233    0.4440 H       1  UNL1        0.2043
      6 BR         -2.3174   -0.8765   -0.0054 Br      1  UNL1       -0.0314
      7 BR          2.2733   -0.9126    0.0729 Br      1  UNL1       -0.0240
      8 N           0.0335    1.9550    0.2451 N.am    1  UNL1       -0.0960
      9 C          -0.1837    3.3121   -0.2185 C.3     1  UNL1       -0.2752
     10 C          -0.0240    1.7732    1.6825 C.3     1  UNL1       -0.2961
     11 H          -0.1313    3.3370   -1.3019 H       1  UNL1        0.1536
     12 H          -1.1658    3.6603    0.1075 H       1  UNL1        0.1450
     13 H           0.5784    3.9724    0.1995 H       1  UNL1        0.1464
     14 H           0.1996    0.7470    1.9563 H       1  UNL1        0.1719
     15 H           0.7035    2.4299    2.1626 H       1  UNL1        0.1515
     16 H          -1.0202    2.0263    2.0508 H       1  UNL1        0.1531
@<TRIPOS>BOND
     1     3     2    2
     2    11     9    1
     3     2     1    1
     4     2     8   am
     5     9    12    1
     6     9    13    1
     7     9     8    1
     8     1     7    1
     9     1     4    2
    10     6     4    1
    11     4     5    1
    12     8    10    1
    13    10    14    1
    14    10    16    1
    15    10    15    1
