@<TRIPOS>MOLECULE
GS-464-0.out
 24 24 0 0 0
SMALL
MULLIKEN_CHARGES
****
Gaussian 16 # wB97XD def2tzvp, opt=(calcfc, maxcycles=70, maxstep=10), freq=norama
@<TRIPOS>ATOM
      1 C          -1.6938    0.0022    0.2453 C.2     1  UNL1       -0.0656
      2 C          -0.5345    0.9059   -0.0237 C.2     1  UNL1        0.2839
      3 O          -0.6868    2.0942   -0.2381 O.2     1  UNL1       -0.4063
      4 C          -2.8108    0.2317   -0.4481 C.2     1  UNL1       -0.0951
      5 C          -4.0764   -0.5501   -0.3742 C.3     1  UNL1       -0.3503
      6 H          -4.9043    0.1037   -0.0869 H       1  UNL1        0.1403
      7 H          -4.3269   -0.9542   -1.3582 H       1  UNL1        0.1411
      8 H          -4.0252   -1.3754    0.3336 H       1  UNL1        0.1323
      9 H          -2.8023    1.0598   -1.1500 H       1  UNL1        0.1469
     10 C          -1.5472   -1.1009    1.2642 C.3     1  UNL1       -0.4348
     11 H          -0.6437   -0.9750    1.8590 H       1  UNL1        0.1552
     12 H          -2.3962   -1.1001    1.9485 H       1  UNL1        0.1558
     13 H          -1.5007   -2.0881    0.7995 H       1  UNL1        0.1543
     14 C           0.8429    0.3203   -0.0427 C.ar    1  UNL1        0.1067
     15 C           1.9216    1.1120    0.3432 C.ar    1  UNL1       -0.2062
     16 C           3.2104    0.6083    0.2943 C.ar    1  UNL1       -0.1328
     17 C           3.4332   -0.6840   -0.1637 C.ar    1  UNL1       -0.1332
     18 C           2.3644   -1.4727   -0.5651 C.ar    1  UNL1       -0.1441
     19 C           1.0722   -0.9765   -0.4940 C.ar    1  UNL1       -0.2112
     20 H           1.7387    2.1220    0.6866 H       1  UNL1        0.1467
     21 H           4.0435    1.2234    0.6093 H       1  UNL1        0.1479
     22 H           4.4414   -1.0758   -0.2088 H       1  UNL1        0.1500
     23 H           2.5369   -2.4763   -0.9318 H       1  UNL1        0.1485
     24 H           0.2418   -1.5950   -0.8103 H       1  UNL1        0.1700
@<TRIPOS>BOND
     1     7     5    1
     2     9     4    1
     3    23    18    1
     4    24    19    1
     5    18    19   ar
     6    18    17   ar
     7    19    14   ar
     8     4     5    1
     9     4     1    2
    10     5     6    1
    11     5     8    1
    12     3     2    2
    13    22    17    1
    14    17    16   ar
    15    14     2    1
    16    14    15   ar
    17     2     1    1
    18     1    10    1
    19    16    15   ar
    20    16    21    1
    21    15    20    1
    22    13    10    1
    23    10    11    1
    24    10    12    1
