@<TRIPOS>MOLECULE
GS-43-0.out
 30 31 0 0 0
SMALL
MULLIKEN_CHARGES
****
Gaussian 16 # wB97XD def2tzvp, opt=(maxcycles=50, maxstep=10), freq=noraman, geom=
@<TRIPOS>ATOM
      1 C           0.7826   -1.0945   -0.0495 C.2     1  UNL1        0.0751
      2 C           1.8014   -2.2051   -0.0261 C.2     1  UNL1        0.2993
      3 O           1.4967   -3.3806   -0.1847 O.2     1  UNL1       -0.4834
      4 C          -0.5011   -1.4647   -0.0936 C.2     1  UNL1       -0.1931
      5 C          -1.7153   -0.6398   -0.1175 C.ar    1  UNL1        0.2310
      6 C          -1.7720    0.6563   -0.6372 C.ar    1  UNL1       -0.2225
      7 C          -2.9610    1.3664   -0.6312 C.ar    1  UNL1       -0.1534
      8 C          -4.1147    0.8027   -0.1031 C.ar    1  UNL1       -0.1337
      9 C          -4.0767   -0.4881    0.4038 C.ar    1  UNL1       -0.1487
     10 C          -2.8910   -1.2039    0.3846 C.ar    1  UNL1       -0.2330
     11 H          -0.8881    1.1096   -1.0628 H       1  UNL1        0.1769
     12 H          -2.9873    2.3667   -1.0447 H       1  UNL1        0.1431
     13 H          -5.0405    1.3637   -0.0966 H       1  UNL1        0.1470
     14 H          -4.9729   -0.9413    0.8079 H       1  UNL1        0.1448
     15 H          -2.8688   -2.2163    0.7705 H       1  UNL1        0.1422
     16 H          -0.6752   -2.5363   -0.0873 H       1  UNL1        0.1542
     17 C           1.2514    0.3132    0.0411 C.ar    1  UNL1       -0.0024
     18 C           1.0461    1.0451    1.2081 C.ar    1  UNL1       -0.1803
     19 C           1.4623    2.3643    1.2945 C.ar    1  UNL1       -0.1576
     20 C           2.0936    2.9676    0.2158 C.ar    1  UNL1       -0.1164
     21 C           2.3127    2.2430   -0.9471 C.ar    1  UNL1       -0.1347
     22 C           1.8976    0.9226   -1.0326 C.ar    1  UNL1       -0.2169
     23 H           0.5471    0.5760    2.0471 H       1  UNL1        0.1468
     24 H           1.2927    2.9227    2.2064 H       1  UNL1        0.1446
     25 H           2.4165    3.9986    0.2822 H       1  UNL1        0.1477
     26 H           2.8052    2.7071   -1.7920 H       1  UNL1        0.1462
     27 H           2.0636    0.3615   -1.9444 H       1  UNL1        0.1437
     28 N           3.0741   -1.8261    0.1952 N.am    1  UNL1       -0.4338
     29 H           3.7914   -2.5288    0.2300 H       1  UNL1        0.2747
     30 H           3.3286   -0.8654    0.3359 H       1  UNL1        0.2927
@<TRIPOS>BOND
     1    27    22    1
     2    26    21    1
     3    11     6    1
     4    12     7    1
     5    22    21   ar
     6    22    17   ar
     7    21    20   ar
     8     6     7   ar
     9     6     5   ar
    10     7     8   ar
    11     3     2    2
    12     5     4    1
    13     5    10   ar
    14     8    13    1
    15     8     9   ar
    16     4    16    1
    17     4     1    2
    18     1     2    1
    19     1    17    1
    20     2    28   am
    21    17    18   ar
    22    28    29    1
    23    28    30    1
    24    20    25    1
    25    20    19   ar
    26    10     9   ar
    27    10    15    1
    28     9    14    1
    29    18    19   ar
    30    18    23    1
    31    19    24    1
