@<TRIPOS>MOLECULE
GS-414-0.out
 29 29 0 0 0
SMALL
MULLIKEN_CHARGES
****
Gaussian 16 # wB97XD def2tzvp, opt=(calcfc, maxcycles=70, maxstep=10), freq=norama
@<TRIPOS>ATOM
      1 C          -1.1872    1.5692   -0.1008 C.2     1  UNL1       -0.2223
      2 C          -1.9723    0.3181   -0.3234 C.2     1  UNL1        0.2761
      3 O          -2.6953    0.2625   -1.3197 O.2     1  UNL1       -0.5060
      4 C           0.1402    1.6991   -0.0734 C.2     1  UNL1       -0.0289
      5 C           0.7757    3.0548    0.0535 C.3     1  UNL1       -0.3523
      6 H           1.3739    3.1218    0.9648 H       1  UNL1        0.1364
      7 H           1.4511    3.2405   -0.7845 H       1  UNL1        0.1412
      8 H           0.0246    3.8428    0.0825 H       1  UNL1        0.1310
      9 C           1.0610    0.5380   -0.1767 C.ar    1  UNL1        0.2170
     10 C           2.1239    0.3955    0.7152 C.ar    1  UNL1       -0.2286
     11 C           2.9630   -0.7054    0.6484 C.ar    1  UNL1       -0.1509
     12 C           2.7639   -1.6769   -0.3221 C.ar    1  UNL1       -0.1384
     13 C           1.7229   -1.5358   -1.2282 C.ar    1  UNL1       -0.1534
     14 C           0.8811   -0.4367   -1.1572 C.ar    1  UNL1       -0.2081
     15 H           2.2855    1.1379    1.4864 H       1  UNL1        0.1469
     16 H           3.7737   -0.8056    1.3590 H       1  UNL1        0.1434
     17 H           3.4203   -2.5360   -0.3757 H       1  UNL1        0.1453
     18 H           1.5669   -2.2816   -1.9974 H       1  UNL1        0.1436
     19 H           0.0782   -0.3292   -1.8759 H       1  UNL1        0.1519
     20 H          -1.8052    2.4606   -0.0859 H       1  UNL1        0.1460
     21 N          -1.8893   -0.6911    0.5671 N.am    1  UNL1       -0.0942
     22 C          -2.5413   -1.9543    0.2894 C.3     1  UNL1       -0.2755
     23 C          -1.1357   -0.6532    1.8028 C.3     1  UNL1       -0.3104
     24 H          -3.0058   -1.9147   -0.6902 H       1  UNL1        0.1485
     25 H          -1.8027   -2.7597    0.3106 H       1  UNL1        0.1350
     26 H          -3.3036   -2.1638    1.0433 H       1  UNL1        0.1427
     27 H          -0.8515    0.3645    2.0499 H       1  UNL1        0.1616
     28 H          -1.7560   -1.0489    2.6092 H       1  UNL1        0.1506
     29 H          -0.2326   -1.2647    1.7257 H       1  UNL1        0.1520
@<TRIPOS>BOND
     1    18    13    1
     2    19    14    1
     3     3     2    2
     4    13    14   ar
     5    13    12   ar
     6    14     9   ar
     7     7     5    1
     8    24    22    1
     9    17    12    1
    10     2     1    1
    11     2    21   am
    12    12    11   ar
    13     9     4    1
    14     9    10   ar
    15     1    20    1
    16     1     4    2
    17     4     5    1
    18     5     8    1
    19     5     6    1
    20    22    25    1
    21    22    21    1
    22    22    26    1
    23    21    23    1
    24    11    10   ar
    25    11    16    1
    26    10    15    1
    27    29    23    1
    28    23    27    1
    29    23    28    1
