@<TRIPOS>MOLECULE
GS-409-0.out
 21 21 0 0 0
SMALL
MULLIKEN_CHARGES
****
Gaussian 16 # wB97XD def2tzvp, opt=(calcfc, maxcycles=70, maxstep=10), freq=norama
@<TRIPOS>ATOM
      1 C           2.1025    0.3011    0.0317 C.2     1  UNL1       -0.2192
      2 C           2.1855   -1.0929   -0.3849 C.2     1  UNL1        0.1665
      3 O           3.2328   -1.7027   -0.4725 O.2     1  UNL1       -0.4019
      4 C           0.9572    0.9841    0.1911 C.2     1  UNL1        0.0565
      5 C           0.9703    2.4455    0.5161 C.3     1  UNL1       -0.3375
      6 H           0.4607    2.6205    1.4665 H       1  UNL1        0.1495
      7 H           1.9842    2.8371    0.5747 H       1  UNL1        0.1361
      8 H           0.4200    3.0075   -0.2420 H       1  UNL1        0.1475
      9 C          -0.3842    0.3555    0.0903 C.ar    1  UNL1        0.1909
     10 C          -0.7350   -0.7115    0.9154 C.ar    1  UNL1       -0.2863
     11 C          -1.9976   -1.2796    0.8361 C.ar    1  UNL1       -0.1113
     12 C          -2.9247   -0.7911   -0.0717 C.ar    1  UNL1       -0.1472
     13 C          -2.5864    0.2749   -0.8943 C.ar    1  UNL1       -0.1431
     14 C          -1.3299    0.8517   -0.8065 C.ar    1  UNL1       -0.2230
     15 H          -0.0169   -1.0884    1.6331 H       1  UNL1        0.1659
     16 H          -2.2557   -2.1053    1.4869 H       1  UNL1        0.1478
     17 H          -3.9094   -1.2360   -0.1365 H       1  UNL1        0.1483
     18 H          -3.3045    0.6604   -1.6067 H       1  UNL1        0.1472
     19 H          -1.0763    1.6811   -1.4550 H       1  UNL1        0.1554
     20 H           3.0532    0.8046    0.1714 H       1  UNL1        0.1391
     21 H           1.2360   -1.5867   -0.6521 H       1  UNL1        0.1189
@<TRIPOS>BOND
     1    18    13    1
     2    19    14    1
     3    13    14   ar
     4    13    12   ar
     5    14     9   ar
     6    21     2    1
     7     3     2    2
     8     2     1    1
     9     8     5    1
    10    17    12    1
    11    12    11   ar
    12     1    20    1
    13     1     4    2
    14     9     4    1
    15     9    10   ar
    16     4     5    1
    17     5     7    1
    18     5     6    1
    19    11    10   ar
    20    11    16    1
    21    10    15    1
