@<TRIPOS>MOLECULE
GS-411-0.out
 23 23 0 0 0
SMALL
MULLIKEN_CHARGES
****
Gaussian 16 # wB97XD def2tzvp, opt=(calcfc, maxcycles=70, maxstep=10), freq=norama
@<TRIPOS>ATOM
      1 C          -1.9090    0.6653   -0.0041 C.2     1  UNL1       -0.2336
      2 C          -2.2469   -0.7723   -0.1926 C.2     1  UNL1        0.3140
      3 O          -3.2760   -1.2235    0.3010 O.2     1  UNL1       -0.4885
      4 C          -0.7104    1.2401    0.1128 C.2     1  UNL1        0.0622
      5 C          -0.5816    2.7223    0.3116 C.3     1  UNL1       -0.3421
      6 H           0.0357    3.1571   -0.4782 H       1  UNL1        0.1431
      7 H          -1.5522    3.2161    0.3088 H       1  UNL1        0.1318
      8 H          -0.0771    2.9324    1.2578 H       1  UNL1        0.1436
      9 C           0.5750    0.4905    0.1024 C.ar    1  UNL1        0.0558
     10 C           1.5068    0.7003   -0.9119 C.ar    1  UNL1       -0.1985
     11 C           2.7055    0.0024   -0.9209 C.ar    1  UNL1       -0.1430
     12 C           2.9951   -0.8981    0.0938 C.ar    1  UNL1       -0.1350
     13 C           2.0792   -1.1001    1.1167 C.ar    1  UNL1       -0.1403
     14 C           0.8762   -0.4119    1.1198 C.ar    1  UNL1       -0.1865
     15 H           1.2866    1.4012   -1.7081 H       1  UNL1        0.1527
     16 H           3.4148    0.1645   -1.7226 H       1  UNL1        0.1465
     17 H           3.9326   -1.4394    0.0888 H       1  UNL1        0.1475
     18 H           2.3006   -1.7976    1.9145 H       1  UNL1        0.1456
     19 H           0.1590   -0.5746    1.9150 H       1  UNL1        0.1509
     20 H          -2.7947    1.2831    0.0937 H       1  UNL1        0.1443
     21 N          -1.4331   -1.5289   -0.9525 N.am    1  UNL1       -0.4320
     22 H          -1.6321   -2.5096   -1.0476 H       1  UNL1        0.2766
     23 H          -0.5728   -1.1737   -1.3285 H       1  UNL1        0.2849
@<TRIPOS>BOND
     1    16    11    1
     2    15    10    1
     3    23    21    1
     4    22    21    1
     5    21     2   am
     6    11    10   ar
     7    11    12   ar
     8    10     9   ar
     9     6     5    1
    10     2     1    1
    11     2     3    2
    12     1    20    1
    13     1     4    2
    14    17    12    1
    15    12    13   ar
    16     9     4    1
    17     9    14   ar
    18     4     5    1
    19     7     5    1
    20     5     8    1
    21    13    14   ar
    22    13    18    1
    23    14    19    1
