@<TRIPOS>MOLECULE
GS-430-0.out
 29 29 0 0 0
SMALL
MULLIKEN_CHARGES
****
Gaussian 16 # wB97XD def2tzvp, opt=(calcfc, maxcycles=70, maxstep=10), freq=norama
@<TRIPOS>ATOM
      1 C          -0.9538   -0.2493   -0.1371 C.2     1  UNL1       -0.0689
      2 C          -0.6250    1.1890   -0.4431 C.2     1  UNL1        0.2288
      3 O          -0.8700    1.6311   -1.5608 O.2     1  UNL1       -0.4778
      4 C          -0.0649   -1.2329   -0.0243 C.2     1  UNL1       -0.0149
      5 C          -0.3939   -2.6758    0.2044 C.3     1  UNL1       -0.3387
      6 H           0.0705   -3.0229    1.1298 H       1  UNL1        0.1447
      7 H          -1.4636   -2.8564    0.2662 H       1  UNL1        0.1352
      8 H           0.0217   -3.2784   -0.6060 H       1  UNL1        0.1482
      9 C           1.3870   -0.9080   -0.1247 C.ar    1  UNL1        0.2211
     10 C           2.2425   -1.2118    0.9333 C.ar    1  UNL1       -0.2764
     11 C           3.5919   -0.9076    0.8568 C.ar    1  UNL1       -0.1276
     12 C           4.1082   -0.3079   -0.2837 C.ar    1  UNL1       -0.1407
     13 C           3.2667   -0.0148   -1.3462 C.ar    1  UNL1       -0.1487
     14 C           1.9145   -0.3134   -1.2679 C.ar    1  UNL1       -0.2031
     15 H           1.8478   -1.6707    1.8314 H       1  UNL1        0.1573
     16 H           4.2417   -1.1379    1.6915 H       1  UNL1        0.1454
     17 H           5.1631   -0.0728   -0.3439 H       1  UNL1        0.1463
     18 H           3.6624    0.4467   -2.2420 H       1  UNL1        0.1447
     19 H           1.2608   -0.0838   -2.0996 H       1  UNL1        0.1504
     20 BR         -2.8344   -0.5270   -0.0426 Br      1  UNL1       -0.0722
     21 N          -0.0739    1.9214    0.5401 N.am    1  UNL1       -0.0778
     22 C           0.3687    3.2740    0.2641 C.3     1  UNL1       -0.2819
     23 C           0.1344    1.4715    1.9020 C.3     1  UNL1       -0.3117
     24 H           0.3178    3.4618   -0.8034 H       1  UNL1        0.1519
     25 H          -0.2609    3.9963    0.7888 H       1  UNL1        0.1471
     26 H           1.3977    3.3936    0.6081 H       1  UNL1        0.1414
     27 H          -0.2560    2.2243    2.5888 H       1  UNL1        0.1536
     28 H          -0.3812    0.5344    2.0852 H       1  UNL1        0.1678
     29 H           1.1998    1.3350    2.1011 H       1  UNL1        0.1565
@<TRIPOS>BOND
     1    18    13    1
     2    19    14    1
     3     3     2    2
     4    13    14   ar
     5    13    12   ar
     6    14     9   ar
     7    24    22    1
     8     8     5    1
     9     2     1    1
    10     2    21   am
    11    17    12    1
    12    12    11   ar
    13     1    20    1
    14     1     4    2
    15     9     4    1
    16     9    10   ar
    17     4     5    1
    18     5     7    1
    19     5     6    1
    20    22    21    1
    21    22    26    1
    22    22    25    1
    23    21    23    1
    24    11    10   ar
    25    11    16    1
    26    10    15    1
    27    23    28    1
    28    23    29    1
    29    23    27    1
