@<TRIPOS>MOLECULE
GS-451-0.out
 13 12 0 0 0
SMALL
MULLIKEN_CHARGES
****
Gaussian 16 # wB97XD def2tzvp, opt=(calcfc, maxcycles=70, maxstep=10), freq=norama
@<TRIPOS>ATOM
      1 C          -0.2637   -0.4712   -0.0000 C.2     1  UNL1       -0.2526
      2 C           1.1081    0.1009   -0.0000 C.2     1  UNL1        0.3540
      3 O           1.3356    1.3055   -0.0000 O.2     1  UNL1       -0.4974
      4 C          -1.3398    0.3066    0.0000 C.2     1  UNL1       -0.0911
      5 C          -2.7480   -0.1759   -0.0000 C.3     1  UNL1       -0.3231
      6 H          -3.2786    0.2054   -0.8759 H       1  UNL1        0.1383
      7 H          -2.8066   -1.2642   -0.0000 H       1  UNL1        0.1286
      8 H          -3.2786    0.2054    0.8759 H       1  UNL1        0.1383
      9 H          -1.1860    1.3821    0.0000 H       1  UNL1        0.1456
     10 H          -0.3628   -1.5520   -0.0000 H       1  UNL1        0.1491
     11 N           2.1017   -0.8120   -0.0000 N.am    1  UNL1       -0.4535
     12 H           3.0570   -0.5002    0.0000 H       1  UNL1        0.2758
     13 H           1.9189   -1.7986    0.0000 H       1  UNL1        0.2880
@<TRIPOS>BOND
     1     6     5    1
     2     7     5    1
     3    10     1    1
     4     1     2    1
     5     1     4    2
     6     2     3    2
     7     2    11   am
     8     5     4    1
     9     5     8    1
    10    11    12    1
    11    11    13    1
    12     4     9    1
