@<TRIPOS>MOLECULE
GS-467-0.out
 13 12 0 0 0
SMALL
MULLIKEN_CHARGES
****
Gaussian 16 # wB97XD def2tzvp, opt=(calcfc, maxcycles=70, maxstep=10), freq=norama
@<TRIPOS>ATOM
      1 C           0.2352    0.4636    0.0000 C.2     1  UNL1       -0.0739
      2 C           1.7070    0.1459    0.0000 C.2     1  UNL1        0.3201
      3 O           2.5279    1.0523    0.0000 O.2     1  UNL1       -0.4755
      4 C          -0.1751    1.7258   -0.0000 C.2     1  UNL1       -0.0761
      5 C          -1.5591    2.2604   -0.0000 C.3     1  UNL1       -0.3239
      6 H          -1.7055    2.8966   -0.8760 H       1  UNL1        0.1473
      7 H          -2.3158    1.4790   -0.0000 H       1  UNL1        0.1339
      8 H          -1.7055    2.8966    0.8760 H       1  UNL1        0.1473
      9 H           0.6311    2.4528   -0.0000 H       1  UNL1        0.1694
     10 BR         -1.0069   -0.9834    0.0000 Br      1  UNL1       -0.0998
     11 N           2.0622   -1.1472   -0.0000 N.am    1  UNL1       -0.4362
     12 H           3.0409   -1.3747   -0.0000 H       1  UNL1        0.2839
     13 H           1.3894   -1.8921   -0.0000 H       1  UNL1        0.2834
@<TRIPOS>BOND
     1     6     5    1
     2    13    11    1
     3    12    11    1
     4     4     5    1
     5     4     9    1
     6     4     1    2
     7     5     7    1
     8     5     8    1
     9    11     2   am
    10     1     2    1
    11     1    10    1
    12     2     3    2
