@<TRIPOS>MOLECULE
GS-416-0.out
 31 32 0 0 0
SMALL
MULLIKEN_CHARGES
****
Gaussian 16 # wB97XD def2tzvp, opt=(calcfc, maxcycles=70, maxstep=10), freq=norama
@<TRIPOS>ATOM
      1 C           0.7670   -2.1991   -0.1697 C.2     1  UNL1       -0.2585
      2 C          -0.6038   -1.9915    0.3572 C.2     1  UNL1        0.2897
      3 O          -1.0747   -2.8231    1.1142 O.2     1  UNL1       -0.4066
      4 C           1.7490   -1.3005   -0.3094 C.2     1  UNL1        0.0122
      5 C           3.0910   -1.7153   -0.8382 C.3     1  UNL1       -0.3480
      6 H           3.8692   -1.5092   -0.1000 H       1  UNL1        0.1446
      7 H           3.1122   -2.7739   -1.0914 H       1  UNL1        0.1344
      8 H           3.3441   -1.1412   -1.7323 H       1  UNL1        0.1408
      9 C           1.6163    0.1223    0.0901 C.ar    1  UNL1        0.2309
     10 C           1.1537    0.4633    1.3588 C.ar    1  UNL1       -0.2359
     11 C           1.0062    1.7922    1.7251 C.ar    1  UNL1       -0.1507
     12 C           1.3221    2.8003    0.8268 C.ar    1  UNL1       -0.1304
     13 C           1.7999    2.4714   -0.4346 C.ar    1  UNL1       -0.1584
     14 C           1.9569    1.1435   -0.7958 C.ar    1  UNL1       -0.2233
     15 H           0.9108   -0.3199    2.0664 H       1  UNL1        0.1616
     16 H           0.6434    2.0390    2.7147 H       1  UNL1        0.1444
     17 H           1.2023    3.8384    1.1092 H       1  UNL1        0.1462
     18 H           2.0490    3.2527   -1.1414 H       1  UNL1        0.1439
     19 H           2.3169    0.9014   -1.7879 H       1  UNL1        0.1518
     20 H           0.9841   -3.2412   -0.3809 H       1  UNL1        0.1461
     21 C          -1.4274   -0.8220   -0.0741 C.ar    1  UNL1        0.1400
     22 C          -2.4359   -0.3645    0.7705 C.ar    1  UNL1       -0.2168
     23 C          -3.2275    0.7070    0.3961 C.ar    1  UNL1       -0.1344
     24 C          -3.0316    1.3164   -0.8371 C.ar    1  UNL1       -0.1220
     25 C          -2.0414    0.8527   -1.6912 C.ar    1  UNL1       -0.1554
     26 C          -1.2365   -0.2084   -1.3082 C.ar    1  UNL1       -0.1950
     27 H          -2.5811   -0.8481    1.7277 H       1  UNL1        0.1450
     28 H          -3.9981    1.0696    1.0643 H       1  UNL1        0.1464
     29 H          -3.6523    2.1530   -1.1319 H       1  UNL1        0.1490
     30 H          -1.8926    1.3209   -2.6556 H       1  UNL1        0.1458
     31 H          -0.4592   -0.5637   -1.9718 H       1  UNL1        0.1627
@<TRIPOS>BOND
     1    30    25    1
     2    31    26    1
     3    19    14    1
     4     8     5    1
     5    25    26   ar
     6    25    24   ar
     7    26    21   ar
     8    18    13    1
     9    29    24    1
    10     7     5    1
    11     5     4    1
    12     5     6    1
    13    24    23   ar
    14    14    13   ar
    15    14     9   ar
    16    13    12   ar
    17    20     1    1
    18     4     1    2
    19     4     9    1
    20     1     2    1
    21    21     2    1
    22    21    22   ar
    23     9    10   ar
    24     2     3    2
    25    23    22   ar
    26    23    28    1
    27    22    27    1
    28    12    17    1
    29    12    11   ar
    30    10    11   ar
    31    10    15    1
    32    11    16    1
