@<TRIPOS>MOLECULE
GS-479-0.out
 23 23 0 0 0
SMALL
MULLIKEN_CHARGES
****
Gaussian 16 # wB97XD def2tzvp, opt=(calcfc, maxcycles=70, maxstep=10), freq=norama
@<TRIPOS>ATOM
      1 C          -2.1606   -0.1050    0.0000 C.2     1  UNL1       -0.0968
      2 C          -0.7525   -0.6400    0.0000 C.2     1  UNL1        0.4394
      3 O          -0.5609   -1.8442    0.0000 O.2     1  UNL1       -0.4784
      4 C          -3.1946   -0.9372    0.0000 C.2     1  UNL1       -0.0757
      5 C          -4.6414   -0.6068    0.0000 C.3     1  UNL1       -0.3311
      6 H          -5.1191   -1.0515   -0.8760 H       1  UNL1        0.1480
      7 H          -5.1191   -1.0515    0.8760 H       1  UNL1        0.1480
      8 H          -4.8306    0.4642   -0.0000 H       1  UNL1        0.1316
      9 H          -2.9258   -1.9878    0.0000 H       1  UNL1        0.1694
     10 CL         -2.3895    1.6285   -0.0000 Cl      1  UNL1       -0.1137
     11 N           0.2279    0.2927   -0.0000 N.am    1  UNL1       -0.2572
     12 C           1.6218    0.1136   -0.0000 C.ar    1  UNL1        0.3027
     13 C           2.4016    1.2715    0.0000 C.ar    1  UNL1       -0.3029
     14 C           3.7816    1.1866    0.0000 C.ar    1  UNL1       -0.0964
     15 C           4.4078   -0.0528   -0.0000 C.ar    1  UNL1       -0.1854
     16 C           3.6323   -1.2007   -0.0000 C.ar    1  UNL1       -0.1085
     17 C           2.2455   -1.1320   -0.0000 C.ar    1  UNL1       -0.2880
     18 H          -0.0791    1.2523   -0.0000 H       1  UNL1        0.2452
     19 H           1.9209    2.2429    0.0000 H       1  UNL1        0.1467
     20 H           4.3696    2.0955    0.0000 H       1  UNL1        0.1472
     21 H           5.4878   -0.1203   -0.0000 H       1  UNL1        0.1444
     22 H           4.1069   -2.1740   -0.0000 H       1  UNL1        0.1452
     23 H           1.6525   -2.0312   -0.0000 H       1  UNL1        0.1663
@<TRIPOS>BOND
     1     6     5    1
     2    22    16    1
     3    23    17    1
     4     8     5    1
     5    17    16   ar
     6    17    12   ar
     7    16    15   ar
     8    18    11    1
     9    10     1    1
    10    21    15    1
    11    11    12    1
    12    11     2   am
    13    15    14   ar
    14    12    13   ar
    15     5     4    1
    16     5     7    1
    17     1     4    2
    18     1     2    1
    19     4     9    1
    20     2     3    2
    21    13    14   ar
    22    13    19    1
    23    14    20    1
