@<TRIPOS>MOLECULE
GS-485-1.out
 29 29 0 0 0
SMALL
MULLIKEN_CHARGES
****
Gaussian 16 # wB97XD def2tzvp, opt=(calcfc, maxcycles=70, maxstep=1), freq=noraman
@<TRIPOS>ATOM
      1 C          -0.6485    0.4661    0.0810 C.2     1  UNL1        0.0002
      2 C          -1.5512   -0.7347    0.1390 C.2     1  UNL1        0.3033
      3 O          -2.6084   -0.7620    0.7627 O.2     1  UNL1       -0.4985
      4 C          -1.1335    1.7151    0.0212 C.2     1  UNL1        0.0470
      5 C          -0.2427    2.9247    0.0276 C.3     1  UNL1       -0.3869
      6 H          -0.2265    3.3856   -0.9640 H       1  UNL1        0.1475
      7 H          -0.6505    3.6713    0.7134 H       1  UNL1        0.1407
      8 H           0.7811    2.7030    0.3186 H       1  UNL1        0.1441
      9 C          -2.5913    2.0608   -0.0708 C.3     1  UNL1       -0.3707
     10 H          -2.9407    2.4535    0.8881 H       1  UNL1        0.1417
     11 H          -2.7237    2.8595   -0.8048 H       1  UNL1        0.1307
     12 H          -3.2190    1.2165   -0.3365 H       1  UNL1        0.1353
     13 C           0.8141    0.1725    0.0741 C.ar    1  UNL1        0.0290
     14 C           1.4142   -0.4446    1.1710 C.ar    1  UNL1       -0.1769
     15 C           2.7692   -0.7349    1.1675 C.ar    1  UNL1       -0.1572
     16 C           3.5463   -0.4219    0.0600 C.ar    1  UNL1       -0.1307
     17 C           2.9589    0.1819   -1.0416 C.ar    1  UNL1       -0.1343
     18 C           1.6024    0.4746   -1.0339 C.ar    1  UNL1       -0.2188
     19 H           0.8117   -0.6948    2.0366 H       1  UNL1        0.1438
     20 H           3.2205   -1.2069    2.0312 H       1  UNL1        0.1429
     21 H           4.6044   -0.6506    0.0558 H       1  UNL1        0.1459
     22 H           3.5563    0.4252   -1.9112 H       1  UNL1        0.1437
     23 H           1.1452    0.9450   -1.8960 H       1  UNL1        0.1482
     24 N          -1.1123   -1.8119   -0.5407 N.am    1  UNL1       -0.2894
     25 C          -1.8381   -3.0605   -0.5527 C.3     1  UNL1       -0.2630
     26 H          -0.2342   -1.7558   -1.0251 H       1  UNL1        0.2707
     27 H          -1.2839   -3.7797   -1.1507 H       1  UNL1        0.1452
     28 H          -1.9540   -3.4549    0.4585 H       1  UNL1        0.1340
     29 H          -2.8319   -2.9326   -0.9848 H       1  UNL1        0.1327
@<TRIPOS>BOND
     1    22    17    1
     2    23    18    1
     3    27    25    1
     4    17    18   ar
     5    17    16   ar
     6    18    13   ar
     7    26    24    1
     8    29    25    1
     9     6     5    1
    10    11     9    1
    11    25    24    1
    12    25    28    1
    13    24     2   am
    14    12     9    1
    15     9     4    1
    16     9    10    1
    17     4     5    1
    18     4     1    2
    19     5     8    1
    20     5     7    1
    21    21    16    1
    22    16    15   ar
    23    13     1    1
    24    13    14   ar
    25     1     2    1
    26     2     3    2
    27    15    14   ar
    28    15    20    1
    29    14    19    1
