@<TRIPOS>MOLECULE
GS-493-0.out
 19 18 0 0 0
SMALL
MULLIKEN_CHARGES
****
Gaussian 16 # wB97XD def2tzvp, opt=(calcfc, maxcycles=70, maxstep=10), freq=norama
@<TRIPOS>ATOM
      1 C          -0.5917   -0.8199   -0.2438 C.2     1  UNL1       -0.2918
      2 C           0.8588   -0.6380    0.0331 C.2     1  UNL1        0.3889
      3 O           1.5025   -1.5080    0.6168 O.2     1  UNL1       -0.5151
      4 C          -1.5827    0.0426   -0.0110 C.2     1  UNL1        0.0528
      5 C          -3.0036   -0.3360   -0.3108 C.3     1  UNL1       -0.3465
      6 H          -3.5985   -0.3336    0.6064 H       1  UNL1        0.1379
      7 H          -3.4552    0.4008   -0.9805 H       1  UNL1        0.1337
      8 H          -3.0776   -1.3194   -0.7729 H       1  UNL1        0.1285
      9 C          -1.4165    1.4154    0.5737 C.3     1  UNL1       -0.3875
     10 H          -2.1587    1.5709    1.3596 H       1  UNL1        0.1371
     11 H          -0.4278    1.5880    0.9925 H       1  UNL1        0.1420
     12 H          -1.6056    2.1749   -0.1903 H       1  UNL1        0.1522
     13 H          -0.8316   -1.8141   -0.6060 H       1  UNL1        0.1474
     14 N           1.4339    0.4934   -0.4115 N.am    1  UNL1       -0.3268
     15 C           2.8373    0.7766   -0.2112 C.3     1  UNL1       -0.2497
     16 H           0.8837    1.1286   -0.9604 H       1  UNL1        0.2816
     17 H           3.4644    0.0301   -0.7024 H       1  UNL1        0.1332
     18 H           3.0580    1.7549   -0.6308 H       1  UNL1        0.1460
     19 H           3.0827    0.7843    0.8515 H       1  UNL1        0.1361
@<TRIPOS>BOND
     1     7     5    1
     2    16    14    1
     3     8     5    1
     4    17    15    1
     5    18    15    1
     6    13     1    1
     7    14    15    1
     8    14     2   am
     9     5     4    1
    10     5     6    1
    11     1     4    2
    12     1     2    1
    13    15    19    1
    14    12     9    1
    15     4     9    1
    16     2     3    2
    17     9    11    1
    18     9    10    1
