@<TRIPOS>MOLECULE
GS-494-0.out
 22 21 0 0 0
SMALL
MULLIKEN_CHARGES
****
Gaussian 16 # wB97XD def2tzvp, opt=(calcfc, maxcycles=70, maxstep=10), freq=norama
@<TRIPOS>ATOM
      1 C          -0.6501    0.4083   -0.4742 C.2     1  UNL1       -0.4064
      2 C           0.5797   -0.4171   -0.3108 C.2     1  UNL1        0.3614
      3 O           0.5777   -1.6309   -0.5189 O.2     1  UNL1       -0.5198
      4 C          -1.8614    0.0859   -0.0187 C.2     1  UNL1        0.0991
      5 C          -3.0396    0.9731   -0.2921 C.3     1  UNL1       -0.3403
      6 H          -3.8296    0.4058   -0.7918 H       1  UNL1        0.1328
      7 H          -3.4633    1.3417    0.6458 H       1  UNL1        0.1360
      8 H          -2.7754    1.8270   -0.9147 H       1  UNL1        0.1272
      9 C          -2.1672   -1.1293    0.8033 C.3     1  UNL1       -0.3555
     10 H          -2.7102   -0.8357    1.7052 H       1  UNL1        0.1296
     11 H          -2.8271   -1.7979    0.2435 H       1  UNL1        0.1374
     12 H          -1.2763   -1.6847    1.0825 H       1  UNL1        0.1337
     13 H          -0.5329    1.3345   -1.0265 H       1  UNL1        0.1777
     14 N           1.7111    0.2452    0.0262 N.am    1  UNL1       -0.1007
     15 C           2.9806   -0.4502    0.0525 C.3     1  UNL1       -0.2838
     16 C           1.7529    1.6342    0.4370 C.3     1  UNL1       -0.3029
     17 H           2.8915   -1.3906   -0.4825 H       1  UNL1        0.1443
     18 H           3.7423    0.1694   -0.4246 H       1  UNL1        0.1391
     19 H           3.2949   -0.6538    1.0801 H       1  UNL1        0.1399
     20 H           0.7604    1.9945    0.6908 H       1  UNL1        0.1631
     21 H           2.3811    1.7245    1.3254 H       1  UNL1        0.1424
     22 H           2.1753    2.2673   -0.3482 H       1  UNL1        0.1456
@<TRIPOS>BOND
     1    13     1    1
     2     8     5    1
     3     6     5    1
     4     3     2    2
     5    17    15    1
     6     1     2    1
     7     1     4    2
     8    18    15    1
     9    22    16    1
    10     2    14   am
    11     5     4    1
    12     5     7    1
    13     4     9    1
    14    14    15    1
    15    14    16    1
    16    15    19    1
    17    11     9    1
    18    16    20    1
    19    16    21    1
    20     9    12    1
    21     9    10    1
