@<TRIPOS>MOLECULE
GS-404-2.out
 35 36 0 0 0
SMALL
MULLIKEN_CHARGES
****
Gaussian 16 # wB97XD def2tzvp, opt=(calcfc, maxcycles=70, maxstep=10), freq=norama
@<TRIPOS>ATOM
      1 C           0.5572   -0.0245   -0.0222 C.2     1  UNL1        0.1122
      2 C           0.0757    1.3681    0.2433 C.2     1  UNL1        0.2725
      3 O           0.4416    2.0331    1.1834 O.2     1  UNL1       -0.4091
      4 C          -0.3002   -1.0403   -0.1964 C.2     1  UNL1        0.0081
      5 C           0.1352   -2.4433   -0.5059 C.3     1  UNL1       -0.3644
      6 H          -0.0350   -3.0906    0.3581 H       1  UNL1        0.1502
      7 H          -0.4667   -2.8459   -1.3225 H       1  UNL1        0.1436
      8 H           1.1846   -2.5035   -0.7837 H       1  UNL1        0.1477
      9 C          -1.7682   -0.8522   -0.0465 C.ar    1  UNL1        0.1728
     10 C          -2.6417   -1.1868   -1.0796 C.ar    1  UNL1       -0.2512
     11 C          -4.0068   -0.9982   -0.9374 C.ar    1  UNL1       -0.1538
     12 C          -4.5229   -0.4903    0.2475 C.ar    1  UNL1       -0.1347
     13 C          -3.6639   -0.1731    1.2887 C.ar    1  UNL1       -0.1495
     14 C          -2.2964   -0.3542    1.1424 C.ar    1  UNL1       -0.2306
     15 H          -2.2508   -1.5744   -2.0124 H       1  UNL1        0.1521
     16 H          -4.6708   -1.2471   -1.7555 H       1  UNL1        0.1437
     17 H          -5.5901   -0.3472    0.3588 H       1  UNL1        0.1457
     18 H          -4.0572    0.2140    2.2202 H       1  UNL1        0.1442
     19 H          -1.6301   -0.1120    1.9615 H       1  UNL1        0.1581
     20 C           2.0372   -0.1601   -0.0106 C.ar    1  UNL1        0.1357
     21 C           2.8146    0.6161   -0.8686 C.ar    1  UNL1       -0.2138
     22 C           4.1963    0.5089   -0.8625 C.ar    1  UNL1       -0.1563
     23 C           4.8223   -0.3706    0.0101 C.ar    1  UNL1       -0.1338
     24 C           4.0584   -1.1385    0.8770 C.ar    1  UNL1       -0.1329
     25 C           2.6757   -1.0316    0.8680 C.ar    1  UNL1       -0.2576
     26 H           2.3326    1.3051   -1.5527 H       1  UNL1        0.1474
     27 H           4.7855    1.1132   -1.5405 H       1  UNL1        0.1442
     28 H           5.9016   -0.4537    0.0171 H       1  UNL1        0.1463
     29 H           4.5395   -1.8205    1.5665 H       1  UNL1        0.1440
     30 H           2.0829   -1.6260    1.5521 H       1  UNL1        0.1567
     31 O          -0.7660    1.8141   -0.6845 O.3     1  UNL1       -0.2645
     32 C          -1.3454    3.0994   -0.4532 C.3     1  UNL1       -0.2067
     33 H          -1.9945    3.2867   -1.3032 H       1  UNL1        0.1489
     34 H          -1.9248    3.0890    0.4701 H       1  UNL1        0.1424
     35 H          -0.5720    3.8636   -0.3900 H       1  UNL1        0.1423
@<TRIPOS>BOND
     1    15    10    1
     2    16    11    1
     3    26    21    1
     4    27    22    1
     5     7     5    1
     6    33    32    1
     7    10    11   ar
     8    10     9   ar
     9    11    12   ar
    10    21    22   ar
    11    21    20   ar
    12    22    23   ar
    13     8     5    1
    14    31    32    1
    15    31     2    1
    16     5     4    1
    17     5     6    1
    18    32    35    1
    19    32    34    1
    20     4     9    1
    21     4     1    2
    22     9    14   ar
    23     1    20    1
    24     1     2    1
    25    20    25   ar
    26    23    28    1
    27    23    24   ar
    28     2     3    2
    29    12    17    1
    30    12    13   ar
    31    25    24   ar
    32    25    30    1
    33    24    29    1
    34    14    13   ar
    35    14    19    1
    36    13    18    1
