@<TRIPOS>MOLECULE
GS-465-0.out
 11 10 0 0 0
SMALL
MULLIKEN_CHARGES
****
Gaussian 16 # wB97XD def2tzvp, opt=(calcfc, maxcycles=70, maxstep=10), freq=norama
@<TRIPOS>ATOM
      1 C          -0.5687    0.0122    0.0000 C.2     1  UNL1       -0.0432
      2 C          -1.4812   -1.1566   -0.0000 C.2     1  UNL1        0.1538
      3 O          -2.6831   -1.0638    0.0000 O.2     1  UNL1       -0.3615
      4 C          -1.0198    1.2638    0.0000 C.2     1  UNL1       -0.0734
      5 C          -0.2522    2.5310   -0.0000 C.3     1  UNL1       -0.3232
      6 H          -0.5273    3.1238    0.8756 H       1  UNL1        0.1510
      7 H           0.8238    2.3729    0.0000 H       1  UNL1        0.1362
      8 H          -0.5273    3.1238   -0.8756 H       1  UNL1        0.1510
      9 H          -2.1033    1.3477   -0.0000 H       1  UNL1        0.1707
     10 BR          1.2776   -0.4348    0.0000 Br      1  UNL1       -0.0803
     11 H          -0.9842   -2.1417   -0.0000 H       1  UNL1        0.1189
@<TRIPOS>BOND
     1     8     5    1
     2     1     2    1
     3     1     4    2
     4     1    10    1
     5     2     3    2
     6     2    11    1
     7     4     5    1
     8     4     9    1
     9     5     7    1
    10     5     6    1
