@<TRIPOS>MOLECULE
GS-439-2.out
 33 34 0 0 0
SMALL
MULLIKEN_CHARGES
****
Gaussian 16 # wB97XD def2tzvp, opt=(calcfc, maxcycles=70, maxstep=10), freq=norama
@<TRIPOS>ATOM
      1 C           1.9079   -1.0520   -0.0604 C.2     1  UNL1        0.0203
      2 C           0.4822   -1.4574    0.2141 C.2     1  UNL1        0.2781
      3 O           0.2074   -2.2521    1.0921 O.2     1  UNL1       -0.4421
      4 C           2.3602    0.2034   -0.1098 C.2     1  UNL1        0.0199
      5 C           3.7888    0.5774   -0.3556 C.3     1  UNL1       -0.3478
      6 H           4.1947    1.0652    0.5337 H       1  UNL1        0.1522
      7 H           4.4097   -0.2787   -0.6037 H       1  UNL1        0.1342
      8 H           3.8468    1.3028   -1.1692 H       1  UNL1        0.1472
      9 C           1.4282    1.3420    0.1300 C.ar    1  UNL1        0.0742
     10 C           0.7317    1.4511    1.3311 C.ar    1  UNL1       -0.1829
     11 C          -0.1510    2.4993    1.5396 C.ar    1  UNL1       -0.1427
     12 C          -0.3468    3.4525    0.5510 C.ar    1  UNL1       -0.1312
     13 C           0.3513    3.3573   -0.6442 C.ar    1  UNL1       -0.1507
     14 C           1.2399    2.3135   -0.8513 C.ar    1  UNL1       -0.2025
     15 H           0.8810    0.7075    2.1043 H       1  UNL1        0.1565
     16 H          -0.6875    2.5697    2.4770 H       1  UNL1        0.1462
     17 H          -1.0403    4.2678    0.7117 H       1  UNL1        0.1475
     18 H           0.2026    4.0964   -1.4210 H       1  UNL1        0.1459
     19 H           1.7723    2.2416   -1.7918 H       1  UNL1        0.1559
     20 CL          2.9600   -2.4303   -0.2194 Cl      1  UNL1       -0.0970
     21 N          -0.4229   -0.8661   -0.6054 N.am    1  UNL1       -0.2386
     22 C          -1.8166   -0.7892   -0.4163 C.ar    1  UNL1        0.3104
     23 C          -2.4584    0.3648   -0.8608 C.ar    1  UNL1       -0.2880
     24 C          -3.8282    0.4970   -0.7166 C.ar    1  UNL1       -0.1124
     25 C          -4.5694   -0.5151   -0.1215 C.ar    1  UNL1       -0.1754
     26 C          -3.9263   -1.6613    0.3199 C.ar    1  UNL1       -0.0929
     27 C          -2.5544   -1.8104    0.1731 C.ar    1  UNL1       -0.3104
     28 H          -0.0453   -0.2026   -1.2621 H       1  UNL1        0.2722
     29 H          -1.8763    1.1633   -1.3071 H       1  UNL1        0.1643
     30 H          -4.3160    1.3987   -1.0640 H       1  UNL1        0.1455
     31 H          -5.6401   -0.4103   -0.0045 H       1  UNL1        0.1445
     32 H          -4.4961   -2.4582    0.7808 H       1  UNL1        0.1461
     33 H          -2.0593   -2.7064    0.5126 H       1  UNL1        0.1536
@<TRIPOS>BOND
     1    19    14    1
     2    18    13    1
     3    29    23    1
     4    28    21    1
     5     8     5    1
     6    30    24    1
     7    23    24   ar
     8    23    22   ar
     9    14    13   ar
    10    14     9   ar
    11    24    25   ar
    12    13    12   ar
    13    21    22    1
    14    21     2   am
    15     7     5    1
    16    22    27   ar
    17     5     4    1
    18     5     6    1
    19    20     1    1
    20    25    31    1
    21    25    26   ar
    22     4     1    2
    23     4     9    1
    24     1     2    1
    25     9    10   ar
    26    27    26   ar
    27    27    33    1
    28     2     3    2
    29    26    32    1
    30    12    17    1
    31    12    11   ar
    32    10    11   ar
    33    10    15    1
    34    11    16    1
