@<TRIPOS>MOLECULE
GS-488-1.out
 34 35 0 0 0
SMALL
MULLIKEN_CHARGES
****
Gaussian 16 # wB97XD def2tzvp, opt=(calcfc, maxcycles=70, maxstep=1), freq=noraman
@<TRIPOS>ATOM
      1 C          -0.8026    0.9866    0.1898 C.2     1  UNL1        0.0128
      2 C           0.5551    1.0782    0.8276 C.2     1  UNL1        0.2181
      3 O           0.7395    1.7344    1.8335 O.2     1  UNL1       -0.3873
      4 C          -1.4143    2.0753   -0.2937 C.2     1  UNL1        0.0763
      5 C          -2.8059    2.0599   -0.8563 C.3     1  UNL1       -0.3999
      6 H          -3.3586    2.9224   -0.4764 H       1  UNL1        0.1407
      7 H          -2.7783    2.1591   -1.9449 H       1  UNL1        0.1499
      8 H          -3.3565    1.1556   -0.6084 H       1  UNL1        0.1489
      9 C          -0.7676    3.4299   -0.3347 C.3     1  UNL1       -0.3712
     10 H          -0.8771    3.8539   -1.3361 H       1  UNL1        0.1360
     11 H          -1.2791    4.1095    0.3520 H       1  UNL1        0.1443
     12 H           0.2887    3.4177   -0.0775 H       1  UNL1        0.1366
     13 C          -1.3684   -0.3892    0.1826 C.ar    1  UNL1        0.1532
     14 C          -1.8589   -0.9777   -0.9823 C.ar    1  UNL1       -0.3082
     15 C          -2.3559   -2.2712   -0.9689 C.ar    1  UNL1       -0.1122
     16 C          -2.3630   -3.0045    0.2097 C.ar    1  UNL1       -0.1432
     17 C          -1.8664   -2.4354    1.3732 C.ar    1  UNL1       -0.1516
     18 C          -1.3702   -1.1407    1.3575 C.ar    1  UNL1       -0.2330
     19 H          -1.8401   -0.4192   -1.9098 H       1  UNL1        0.1685
     20 H          -2.7327   -2.7105   -1.8840 H       1  UNL1        0.1433
     21 H          -2.7487   -4.0159    0.2194 H       1  UNL1        0.1454
     22 H          -1.8648   -3.0001    2.2969 H       1  UNL1        0.1432
     23 H          -0.9860   -0.7046    2.2724 H       1  UNL1        0.1502
     24 C           1.6713    0.3046    0.2075 C.ar    1  UNL1        0.0901
     25 C           2.7956   -0.0021    0.9711 C.ar    1  UNL1       -0.2237
     26 C           3.8515   -0.6974    0.4087 C.ar    1  UNL1       -0.1273
     27 C           3.7984   -1.0786   -0.9266 C.ar    1  UNL1       -0.1230
     28 C           2.6864   -0.7672   -1.6959 C.ar    1  UNL1       -0.1624
     29 C           1.6221   -0.0847   -1.1285 C.ar    1  UNL1       -0.1769
     30 H           2.8271    0.3053    2.0083 H       1  UNL1        0.1455
     31 H           4.7183   -0.9434    1.0086 H       1  UNL1        0.1482
     32 H           4.6262   -1.6195   -1.3674 H       1  UNL1        0.1504
     33 H           2.6472   -1.0582   -2.7376 H       1  UNL1        0.1467
     34 H           0.7550    0.1587   -1.7288 H       1  UNL1        0.1715
@<TRIPOS>BOND
     1    33    28    1
     2     7     5    1
     3    19    14    1
     4    20    15    1
     5    34    29    1
     6    28    29   ar
     7    28    27   ar
     8    32    27    1
     9    10     9    1
    10    29    24   ar
    11    14    15   ar
    12    14    13   ar
    13    15    16   ar
    14    27    26   ar
    15     5     8    1
    16     5     6    1
    17     5     4    1
    18     9     4    1
    19     9    12    1
    20     9    11    1
    21     4     1    2
    22    13     1    1
    23    13    18   ar
    24     1     2    1
    25    24     2    1
    26    24    25   ar
    27    16    21    1
    28    16    17   ar
    29    26    25   ar
    30    26    31    1
    31     2     3    2
    32    25    30    1
    33    18    17   ar
    34    18    23    1
    35    17    22    1
