@<TRIPOS>MOLECULE
GS-412-0.out
 25 25 0 0 0
SMALL
MULLIKEN_CHARGES
****
Gaussian 16 # wB97XD def2tzvp, opt=(calcfc, maxcycles=70, maxstep=10), freq=norama
@<TRIPOS>ATOM
      1 C           1.5100    1.3226    0.0351 C.2     1  UNL1       -0.2719
      2 C           2.1637   -0.0018    0.0259 C.2     1  UNL1        0.4233
      3 O           3.2354   -0.2024    0.5532 O.2     1  UNL1       -0.4418
      4 C           0.2022    1.5962    0.0261 C.2     1  UNL1        0.0522
      5 C          -0.2768    3.0181    0.0324 C.3     1  UNL1       -0.3362
      6 H          -0.8782    3.2078    0.9245 H       1  UNL1        0.1444
      7 H           0.5511    3.7246    0.0030 H       1  UNL1        0.1330
      8 H          -0.9244    3.2013   -0.8283 H       1  UNL1        0.1436
      9 C          -0.8666    0.5653    0.0715 C.ar    1  UNL1        0.2413
     10 C          -0.9504   -0.3165    1.1459 C.ar    1  UNL1       -0.2569
     11 C          -1.9626   -1.2612    1.2052 C.ar    1  UNL1       -0.1320
     12 C          -2.9039   -1.3384    0.1885 C.ar    1  UNL1       -0.1482
     13 C          -2.8322   -0.4583   -0.8819 C.ar    1  UNL1       -0.1453
     14 C          -1.8267    0.4950   -0.9346 C.ar    1  UNL1       -0.2491
     15 H          -0.2165   -0.2589    1.9405 H       1  UNL1        0.1537
     16 H          -2.0157   -1.9390    2.0478 H       1  UNL1        0.1441
     17 H          -3.6927   -2.0785    0.2321 H       1  UNL1        0.1456
     18 H          -3.5627   -0.5120   -1.6792 H       1  UNL1        0.1442
     19 H          -1.7781    1.1761   -1.7755 H       1  UNL1        0.1517
     20 H           2.2194    2.1387    0.1043 H       1  UNL1        0.1500
     21 O           1.4977   -0.9390   -0.6442 O.3     1  UNL1       -0.2704
     22 C           2.0572   -2.2518   -0.6344 C.3     1  UNL1       -0.2013
     23 H           1.3735   -2.8666   -1.2124 H       1  UNL1        0.1461
     24 H           3.0453   -2.2517   -1.0932 H       1  UNL1        0.1398
     25 H           2.1310   -2.6269    0.3860 H       1  UNL1        0.1402
@<TRIPOS>BOND
     1    19    14    1
     2    18    13    1
     3    23    22    1
     4    24    22    1
     5    14    13   ar
     6    14     9   ar
     7    13    12   ar
     8     8     5    1
     9    21    22    1
    10    21     2    1
    11    22    25    1
    12     7     5    1
    13     2     1    1
    14     2     3    2
    15     4     5    1
    16     4     1    2
    17     4     9    1
    18     5     6    1
    19     1    20    1
    20     9    10   ar
    21    12    17    1
    22    12    11   ar
    23    10    11   ar
    24    10    15    1
    25    11    16    1
