@<TRIPOS>MOLECULE
GS-45-1.out
 33 34 0 0 0
SMALL
MULLIKEN_CHARGES
****
Gaussian 16 # wB97XD def2tzvp, opt=(maxcycles=70, maxstep=1), freq=noraman, scrf=(
@<TRIPOS>ATOM
      1 C           0.7123   -0.7644   -0.0809 C.2     1  UNL1        0.0685
      2 C           1.9681   -1.5985   -0.0853 C.2     1  UNL1        0.3327
      3 O           1.9526   -2.8122   -0.2666 O.2     1  UNL1       -0.5053
      4 C          -0.4466   -1.4290   -0.1171 C.2     1  UNL1       -0.1879
      5 C          -1.8221   -0.9144   -0.1199 C.ar    1  UNL1        0.2301
      6 C          -2.1905    0.3309   -0.6361 C.ar    1  UNL1       -0.2233
      7 C          -3.5132    0.7410   -0.6120 C.ar    1  UNL1       -0.1529
      8 C          -4.4939   -0.0782   -0.0692 C.ar    1  UNL1       -0.1348
      9 C          -4.1453   -1.3229    0.4345 C.ar    1  UNL1       -0.1481
     10 C          -2.8245   -1.7389    0.3976 C.ar    1  UNL1       -0.2378
     11 H          -1.4440    0.9791   -1.0728 H       1  UNL1        0.1760
     12 H          -3.7803    1.7063   -1.0231 H       1  UNL1        0.1427
     13 H          -5.5259    0.2485   -0.0487 H       1  UNL1        0.1466
     14 H          -4.9035   -1.9743    0.8501 H       1  UNL1        0.1444
     15 H          -2.5587   -2.7170    0.7811 H       1  UNL1        0.1418
     16 H          -0.3618   -2.5113   -0.1231 H       1  UNL1        0.1528
     17 C           0.8303    0.7136    0.0232 C.ar    1  UNL1        0.0001
     18 C           0.4614    1.3644    1.1980 C.ar    1  UNL1       -0.1813
     19 C           0.5487    2.7442    1.2962 C.ar    1  UNL1       -0.1580
     20 C           1.0107    3.4911    0.2216 C.ar    1  UNL1       -0.1161
     21 C           1.3918    2.8508   -0.9489 C.ar    1  UNL1       -0.1338
     22 C           1.3061    1.4701   -1.0460 C.ar    1  UNL1       -0.2271
     23 H           0.0943    0.7816    2.0338 H       1  UNL1        0.1466
     24 H           0.2547    3.2375    2.2140 H       1  UNL1        0.1445
     25 H           1.0764    4.5690    0.2971 H       1  UNL1        0.1476
     26 H           1.7538    3.4272   -1.7907 H       1  UNL1        0.1462
     27 H           1.5979    0.9732   -1.9635 H       1  UNL1        0.1438
     28 N           3.1133   -0.9318    0.1365 N.am    1  UNL1       -0.2862
     29 C           4.3930   -1.6011    0.1740 C.3     1  UNL1       -0.2657
     30 H           3.0784    0.0599    0.2927 H       1  UNL1        0.2753
     31 H           5.1687   -0.8594    0.3470 H       1  UNL1        0.1466
     32 H           4.4243   -2.3416    0.9750 H       1  UNL1        0.1355
     33 H           4.5926   -2.1101   -0.7701 H       1  UNL1        0.1363
@<TRIPOS>BOND
     1    27    22    1
     2    26    21    1
     3    11     6    1
     4    22    21   ar
     5    22    17   ar
     6    12     7    1
     7    21    20   ar
     8    33    29    1
     9     6     7   ar
    10     6     5   ar
    11     7     8   ar
    12     3     2    2
    13    16     4    1
    14     5     4    1
    15     5    10   ar
    16     4     1    2
    17     2     1    1
    18     2    28   am
    19     1    17    1
    20     8    13    1
    21     8     9   ar
    22    17    18   ar
    23    28    29    1
    24    28    30    1
    25    29    31    1
    26    29    32    1
    27    20    25    1
    28    20    19   ar
    29    10     9   ar
    30    10    15    1
    31     9    14    1
    32    18    19   ar
    33    18    23    1
    34    19    24    1
