@<TRIPOS>MOLECULE
GS-476-0.out
 15 14 0 0 0
SMALL
MULLIKEN_CHARGES
****
Gaussian 16 # wB97XD def2tzvp, opt=(calcfc, maxcycles=70, maxstep=10), freq=norama
@<TRIPOS>ATOM
      1 C           0.5700   -0.0958    0.0000 C.2     1  UNL1       -0.0988
      2 C          -0.8566   -0.5347    0.0000 C.2     1  UNL1        0.4536
      3 O          -1.1847   -1.6966    0.0000 O.2     1  UNL1       -0.4262
      4 C           1.5447   -0.9995   -0.0000 C.2     1  UNL1       -0.0660
      5 C           3.0093   -0.7651   -0.0000 C.3     1  UNL1       -0.3281
      6 H           3.4562   -1.2410   -0.8759 H       1  UNL1        0.1489
      7 H           3.2665    0.2915    0.0000 H       1  UNL1        0.1302
      8 H           3.4562   -1.2410    0.8759 H       1  UNL1        0.1489
      9 H           1.2089   -2.0308   -0.0000 H       1  UNL1        0.1689
     10 CL          0.8901    1.6137    0.0000 Cl      1  UNL1       -0.0971
     11 O          -1.7135    0.4746   -0.0000 O.3     1  UNL1       -0.2720
     12 C          -3.1011    0.1274   -0.0000 C.3     1  UNL1       -0.1991
     13 H          -3.6381    1.0708   -0.0000 H       1  UNL1        0.1508
     14 H          -3.3467   -0.4502   -0.8900 H       1  UNL1        0.1430
     15 H          -3.3467   -0.4502    0.8900 H       1  UNL1        0.1430
@<TRIPOS>BOND
     1    14    12    1
     2     6     5    1
     3    13    12    1
     4     9     4    1
     5    11     2    1
     6    11    12    1
     7     1     2    1
     8     1     4    2
     9     1    10    1
    10     2     3    2
    11     4     5    1
    12     5     7    1
    13     5     8    1
    14    12    15    1
