@<TRIPOS>MOLECULE
GS-41-0.out
 28 29 0 0 0
SMALL
MULLIKEN_CHARGES
****
Gaussian 16 # wB97XD def2tzvp, opt=(calcfc, maxcycles=70, maxstep=10), freq=norama
@<TRIPOS>ATOM
      1 C          -0.7244    1.3697    0.0082 C.2     1  UNL1        0.0563
      2 C          -1.5330    2.6151    0.0255 C.2     1  UNL1        0.1506
      3 O          -1.0898    3.7392   -0.0222 O.2     1  UNL1       -0.3811
      4 C           0.6112    1.4964   -0.0244 C.2     1  UNL1       -0.1719
      5 C           1.6490    0.4663   -0.0975 C.ar    1  UNL1        0.2150
      6 C           1.4499   -0.7893   -0.6789 C.ar    1  UNL1       -0.2185
      7 C           2.4814   -1.7103   -0.7319 C.ar    1  UNL1       -0.1530
      8 C           3.7269   -1.4009   -0.2004 C.ar    1  UNL1       -0.1287
      9 C           3.9424   -0.1537    0.3674 C.ar    1  UNL1       -0.1477
     10 C           2.9157    0.7752    0.4049 C.ar    1  UNL1       -0.2249
     11 H           0.4891   -1.0418   -1.1051 H       1  UNL1        0.1787
     12 H           2.3139   -2.6753   -1.1930 H       1  UNL1        0.1453
     13 H           4.5291   -2.1268   -0.2391 H       1  UNL1        0.1488
     14 H           4.9134    0.0995    0.7733 H       1  UNL1        0.1465
     15 H           3.0908    1.7539    0.8357 H       1  UNL1        0.1450
     16 H           0.9816    2.5174    0.0144 H       1  UNL1        0.1527
     17 C          -1.4840    0.0983    0.0786 C.ar    1  UNL1        0.1206
     18 C          -1.3058   -0.7733    1.1515 C.ar    1  UNL1       -0.2313
     19 C          -2.0228   -1.9560    1.2247 C.ar    1  UNL1       -0.1344
     20 C          -2.9347   -2.2813    0.2291 C.ar    1  UNL1       -0.1368
     21 C          -3.1293   -1.4140   -0.8352 C.ar    1  UNL1       -0.1431
     22 C          -2.4115   -0.2286   -0.9074 C.ar    1  UNL1       -0.2413
     23 H          -0.5939   -0.5213    1.9278 H       1  UNL1        0.1528
     24 H          -1.8720   -2.6251    2.0624 H       1  UNL1        0.1448
     25 H          -3.4942   -3.2063    0.2857 H       1  UNL1        0.1467
     26 H          -3.8400   -1.6597   -1.6141 H       1  UNL1        0.1452
     27 H          -2.5607    0.4396   -1.7474 H       1  UNL1        0.1532
     28 H          -2.6246    2.4516    0.0908 H       1  UNL1        0.1105
@<TRIPOS>BOND
     1    27    22    1
     2    26    21    1
     3    12     7    1
     4    11     6    1
     5    22    21   ar
     6    22    17   ar
     7    21    20   ar
     8     7     6   ar
     9     7     8   ar
    10     6     5   ar
    11    13     8    1
    12     8     9   ar
    13     5     4    1
    14     5    10   ar
    15     4     1    2
    16     4    16    1
    17     3     2    2
    18     1     2    1
    19     1    17    1
    20     2    28    1
    21    17    18   ar
    22    20    25    1
    23    20    19   ar
    24     9    10   ar
    25     9    14    1
    26    10    15    1
    27    18    19   ar
    28    18    23    1
    29    19    24    1
