@<TRIPOS>MOLECULE
GS-473-0.out
 11 10 0 0 0
SMALL
MULLIKEN_CHARGES
****
Gaussian 16 # wB97XD def2tzvp, opt=(calcfc, maxcycles=70, maxstep=10), freq=norama
@<TRIPOS>ATOM
      1 C           0.1720    0.0227    0.0000 C.2     1  UNL1       -0.0046
      2 C           1.6483    0.1503   -0.0000 C.2     1  UNL1        0.1637
      3 O           2.4017   -0.7905    0.0000 O.2     1  UNL1       -0.3629
      4 C          -0.4435   -1.1568   -0.0000 C.2     1  UNL1       -0.0840
      5 C          -1.8995   -1.4326    0.0000 C.3     1  UNL1       -0.3233
      6 H          -2.1585   -2.0322    0.8758 H       1  UNL1        0.1505
      7 H          -2.4988   -0.5251    0.0000 H       1  UNL1        0.1324
      8 H          -2.1586   -2.0322   -0.8758 H       1  UNL1        0.1505
      9 H           0.2245   -2.0129   -0.0000 H       1  UNL1        0.1692
     10 CL         -0.6771    1.5433    0.0000 Cl      1  UNL1       -0.1066
     11 H           2.0252    1.1876   -0.0000 H       1  UNL1        0.1150
@<TRIPOS>BOND
     1     8     5    1
     2    11     2    1
     3     4     9    1
     4     4     1    2
     5     4     5    1
     6     2     1    1
     7     2     3    2
     8     1    10    1
     9     5     7    1
    10     5     6    1
