@<TRIPOS>MOLECULE
GS-425-0.out
 21 21 0 0 0
SMALL
MULLIKEN_CHARGES
****
Gaussian 16 # wB97XD def2tzvp, opt=(calcfc, maxcycles=70, maxstep=10), freq=norama
@<TRIPOS>ATOM
      1 C           0.9151    0.1951    0.0894 C.2     1  UNL1       -0.0651
      2 C           0.6437    1.5957    0.4487 C.2     1  UNL1        0.1135
      3 O           1.4800    2.4610    0.5458 O.2     1  UNL1       -0.3658
      4 C          -0.0507   -0.7265   -0.0681 C.2     1  UNL1        0.0669
      5 C           0.1936   -2.1776   -0.3237 C.3     1  UNL1       -0.3408
      6 H          -0.0409   -2.3968   -1.3693 H       1  UNL1        0.1617
      7 H           1.2184   -2.4770   -0.1241 H       1  UNL1        0.1419
      8 H          -0.4864   -2.7782    0.2819 H       1  UNL1        0.1535
      9 C          -1.4860   -0.3297   -0.0480 C.ar    1  UNL1        0.1752
     10 C          -2.0013    0.5149   -1.0277 C.ar    1  UNL1       -0.2728
     11 C          -3.3471    0.8504   -1.0268 C.ar    1  UNL1       -0.1067
     12 C          -4.1882    0.3493   -0.0452 C.ar    1  UNL1       -0.1438
     13 C          -3.6811   -0.4970    0.9318 C.ar    1  UNL1       -0.1427
     14 C          -2.3405   -0.8448    0.9248 C.ar    1  UNL1       -0.2117
     15 H          -1.3459    0.9031   -1.7974 H       1  UNL1        0.1628
     16 H          -3.7364    1.5054   -1.7955 H       1  UNL1        0.1497
     17 H          -5.2375    0.6146   -0.0417 H       1  UNL1        0.1500
     18 H          -4.3325   -0.8891    1.7023 H       1  UNL1        0.1488
     19 H          -1.9517   -1.5043    1.6909 H       1  UNL1        0.1604
     20 BR          2.7584   -0.2301   -0.0772 Br      1  UNL1       -0.0759
     21 H          -0.4155    1.8090    0.6568 H       1  UNL1        0.1409
@<TRIPOS>BOND
     1    15    10    1
     2    16    11    1
     3     6     5    1
     4    10    11   ar
     5    10     9   ar
     6    11    12   ar
     7     5     7    1
     8     5     4    1
     9     5     8    1
    10    20     1    1
    11     4     9    1
    12     4     1    2
    13     9    14   ar
    14    12    17    1
    15    12    13   ar
    16     1     2    1
    17     2     3    2
    18     2    21    1
    19    14    13   ar
    20    14    19    1
    21    13    18    1
