@<TRIPOS>MOLECULE
GS-458-0.out
 17 16 0 0 0
SMALL
MULLIKEN_CHARGES
****
Gaussian 16 # wB97XD def2tzvp, opt=(calcfc, maxcycles=70, maxstep=10), freq=norama
@<TRIPOS>ATOM
      1 C           0.2359    0.2940    0.0000 C.2     1  UNL1       -0.0711
      2 C          -1.2163   -0.0385   -0.0000 C.2     1  UNL1        0.2662
      3 O          -2.0407    0.8580   -0.0000 O.2     1  UNL1       -0.4172
      4 C           1.1421   -0.6899    0.0000 C.2     1  UNL1       -0.0896
      5 C           2.6276   -0.5758   -0.0000 C.3     1  UNL1       -0.3418
      6 H           3.0370   -1.0867   -0.8752 H       1  UNL1        0.1420
      7 H           2.9881    0.4498   -0.0001 H       1  UNL1        0.1191
      8 H           3.0370   -1.0865    0.8753 H       1  UNL1        0.1420
      9 H           0.7810   -1.7124    0.0000 H       1  UNL1        0.1548
     10 C           0.5507    1.7612    0.0000 C.3     1  UNL1       -0.3364
     11 H           0.1149    2.2454    0.8757 H       1  UNL1        0.1309
     12 H           1.6206    1.9532    0.0001 H       1  UNL1        0.1158
     13 H           0.1151    2.2454   -0.8757 H       1  UNL1        0.1309
     14 C          -1.6735   -1.4781    0.0000 C.3     1  UNL1       -0.3915
     15 H          -1.3039   -2.0054   -0.8805 H       1  UNL1        0.1542
     16 H          -1.3039   -2.0053    0.8806 H       1  UNL1        0.1542
     17 H          -2.7605   -1.4987    0.0000 H       1  UNL1        0.1375
@<TRIPOS>BOND
     1    15    14    1
     2    13    10    1
     3     6     5    1
     4     7     5    1
     5     3     2    2
     6     5     4    1
     7     5     8    1
     8     2     1    1
     9     2    14    1
    10     4     9    1
    11     4     1    2
    12     1    10    1
    13    17    14    1
    14    14    16    1
    15    10    12    1
    16    10    11    1
