@<TRIPOS>MOLECULE
GS-424-1.out
 34 35 0 0 0
SMALL
MULLIKEN_CHARGES
****
Gaussian 16 # wB97XD def2tzvp, opt=(calcfc, maxcycles=70, maxstep=1), freq=noraman
@<TRIPOS>ATOM
      1 C          -1.6909   -1.2472    0.0066 C.2     1  UNL1        0.0351
      2 C          -0.4260   -1.5979    0.7305 C.2     1  UNL1        0.2423
      3 O          -0.4770   -2.2218    1.7742 O.2     1  UNL1       -0.3980
      4 C          -1.9677    0.0122   -0.3576 C.2     1  UNL1       -0.0224
      5 C          -3.2314    0.3860   -1.0786 C.3     1  UNL1       -0.3699
      6 H          -3.0077    1.0590   -1.9084 H       1  UNL1        0.1381
      7 H          -3.7620   -0.4766   -1.4743 H       1  UNL1        0.1400
      8 H          -3.9020    0.9288   -0.4066 H       1  UNL1        0.1461
      9 C          -1.0746    1.1492   -0.0106 C.ar    1  UNL1        0.2371
     10 C          -0.5730    1.9910   -1.0030 C.ar    1  UNL1       -0.2474
     11 C           0.2828    3.0309   -0.6818 C.ar    1  UNL1       -0.1508
     12 C           0.6353    3.2626    0.6418 C.ar    1  UNL1       -0.1347
     13 C           0.1225    2.4485    1.6394 C.ar    1  UNL1       -0.1491
     14 C          -0.7270    1.4007    1.3144 C.ar    1  UNL1       -0.2473
     15 H          -0.8283    1.8111   -2.0402 H       1  UNL1        0.1535
     16 H           0.6800    3.6616   -1.4672 H       1  UNL1        0.1426
     17 H           1.3028    4.0773    0.8923 H       1  UNL1        0.1448
     18 H           0.3830    2.6270    2.6751 H       1  UNL1        0.1426
     19 H          -1.1277    0.7696    2.0981 H       1  UNL1        0.1557
     20 C          -2.6333   -2.4051   -0.2147 C.3     1  UNL1       -0.4336
     21 H          -2.3268   -3.2625    0.3816 H       1  UNL1        0.1410
     22 H          -3.6574   -2.1545    0.0616 H       1  UNL1        0.1494
     23 H          -2.6364   -2.7098   -1.2643 H       1  UNL1        0.1525
     24 C           0.8968   -1.2471    0.1300 C.ar    1  UNL1        0.1446
     25 C           2.0137   -1.1629    0.9584 C.ar    1  UNL1       -0.2531
     26 C           3.2572   -0.8719    0.4263 C.ar    1  UNL1       -0.1176
     27 C           3.3991   -0.6846   -0.9435 C.ar    1  UNL1       -0.1292
     28 C           2.2938   -0.7826   -1.7759 C.ar    1  UNL1       -0.1443
     29 C           1.0446   -1.0533   -1.2400 C.ar    1  UNL1       -0.2192
     30 H           1.8922   -1.3161    2.0228 H       1  UNL1        0.1447
     31 H           4.1185   -0.7909    1.0769 H       1  UNL1        0.1468
     32 H           4.3729   -0.4616   -1.3609 H       1  UNL1        0.1490
     33 H           2.4031   -0.6418   -2.8435 H       1  UNL1        0.1459
     34 H           0.1800   -1.1160   -1.8878 H       1  UNL1        0.1650
@<TRIPOS>BOND
     1    33    28    1
     2    15    10    1
     3     6     5    1
     4    34    29    1
     5    28    29   ar
     6    28    27   ar
     7     7     5    1
     8    16    11    1
     9    32    27    1
    10    23    20    1
    11    29    24   ar
    12     5     8    1
    13     5     4    1
    14    10    11   ar
    15    10     9   ar
    16    27    26   ar
    17    11    12   ar
    18     4     9    1
    19     4     1    2
    20    20     1    1
    21    20    22    1
    22    20    21    1
    23     9    14   ar
    24     1     2    1
    25    24     2    1
    26    24    25   ar
    27    26    25   ar
    28    26    31    1
    29    12    17    1
    30    12    13   ar
    31     2     3    2
    32    25    30    1
    33    14    13   ar
    34    14    19    1
    35    13    18    1
