@<TRIPOS>MOLECULE
GS-468-0.out
 15 14 0 0 0
SMALL
MULLIKEN_CHARGES
****
Gaussian 16 # wB97XD def2tzvp, opt=(calcfc, maxcycles=70, maxstep=10), freq=norama
@<TRIPOS>ATOM
      1 C          -0.2713    0.5447    0.0000 C.2     1  UNL1       -0.1495
      2 C           1.2136    0.6968    0.0000 C.2     1  UNL1        0.4611
      3 O           1.7612    1.7732    0.0000 O.2     1  UNL1       -0.4259
      4 C          -1.0440    1.6263   -0.0000 C.2     1  UNL1       -0.0585
      5 C          -2.5243    1.7126   -0.0000 C.3     1  UNL1       -0.3277
      6 H          -2.8562    2.2751   -0.8758 H       1  UNL1        0.1494
      7 H          -3.0060    0.7378   -0.0000 H       1  UNL1        0.1338
      8 H          -2.8562    2.2751    0.8758 H       1  UNL1        0.1494
      9 H          -0.5024    2.5670   -0.0000 H       1  UNL1        0.1699
     10 BR         -0.9904   -1.2118    0.0000 Br      1  UNL1       -0.0678
     11 O           1.8615   -0.4579   -0.0000 O.3     1  UNL1       -0.2700
     12 C           3.2898   -0.3839   -0.0000 C.3     1  UNL1       -0.2008
     13 H           3.6353   -1.4130   -0.0000 H       1  UNL1        0.1508
     14 H           3.6417    0.1357   -0.8900 H       1  UNL1        0.1430
     15 H           3.6417    0.1357    0.8900 H       1  UNL1        0.1430
@<TRIPOS>BOND
     1    14    12    1
     2     6     5    1
     3     5     4    1
     4     5     7    1
     5     5     8    1
     6    11    12    1
     7    11     2    1
     8    12    13    1
     9    12    15    1
    10     1     2    1
    11     1     4    2
    12     1    10    1
    13     2     3    2
    14     4     9    1
