@<TRIPOS>MOLECULE
GS-453-0.out
 16 15 0 0 0
SMALL
MULLIKEN_CHARGES
****
Gaussian 16 # wB97XD def2tzvp, opt=(calcfc, maxcycles=70, maxstep=10), freq=norama
@<TRIPOS>ATOM
      1 C           0.7887   -0.4482   -0.0002 C.2     1  UNL1       -0.2902
      2 C          -0.5558    0.1851   -0.0001 C.2     1  UNL1        0.4068
      3 O          -0.7307    1.4011   -0.0001 O.2     1  UNL1       -0.5174
      4 C           1.9010    0.2764    0.0001 C.2     1  UNL1       -0.0829
      5 C           3.2846   -0.2740    0.0001 C.3     1  UNL1       -0.3267
      6 H           3.8336    0.0797    0.8763 H       1  UNL1        0.1374
      7 H           3.2897   -1.3639   -0.0003 H       1  UNL1        0.1283
      8 H           3.8338    0.0803   -0.8758 H       1  UNL1        0.1374
      9 H           1.7994    1.3582    0.0005 H       1  UNL1        0.1432
     10 H           0.8377   -1.5328   -0.0005 H       1  UNL1        0.1450
     11 N          -1.5873   -0.6807   -0.0000 N.am    1  UNL1       -0.3173
     12 C          -2.9633   -0.2404    0.0002 C.3     1  UNL1       -0.2497
     13 H          -1.3955   -1.6661    0.0001 H       1  UNL1        0.2710
     14 H          -3.6097   -1.1145    0.0003 H       1  UNL1        0.1463
     15 H          -3.1812    0.3610    0.8844 H       1  UNL1        0.1344
     16 H          -3.1815    0.3610   -0.8840 H       1  UNL1        0.1344
@<TRIPOS>BOND
     1    16    12    1
     2     8     5    1
     3    10     1    1
     4     7     5    1
     5     1     2    1
     6     1     4    2
     7     3     2    2
     8     2    11   am
     9    11    13    1
    10    11    12    1
    11     5     4    1
    12     5     6    1
    13     4     9    1
    14    12    14    1
    15    12    15    1
