@<TRIPOS>MOLECULE
GS-471-1.out
 23 23 0 0 0
SMALL
MULLIKEN_CHARGES
****
Gaussian 16 # wB97XD def2tzvp, opt=(calcfc, maxcycles=70, maxstep=1), freq=noraman
@<TRIPOS>ATOM
      1 C          -1.7441    0.5572    0.0069 C.2     1  UNL1       -0.1290
      2 C          -0.2870    0.9459    0.0080 C.2     1  UNL1        0.4375
      3 O           0.0214    2.1258    0.0198 O.2     1  UNL1       -0.4778
      4 C          -2.6783    1.5003    0.0243 C.2     1  UNL1       -0.0700
      5 C          -4.1548    1.3567    0.0274 C.3     1  UNL1       -0.3298
      6 H          -4.5671    1.8446    0.9137 H       1  UNL1        0.1486
      7 H          -4.5739    1.8755   -0.8379 H       1  UNL1        0.1485
      8 H          -4.4820    0.3196    0.0104 H       1  UNL1        0.1340
      9 H          -2.2868    2.5124    0.0382 H       1  UNL1        0.1704
     10 BR         -2.2127   -1.2921   -0.0196 Br      1  UNL1       -0.0935
     11 N           0.6023   -0.0733   -0.0039 N.am    1  UNL1       -0.2573
     12 C           2.0071   -0.0230   -0.0012 C.ar    1  UNL1        0.3005
     13 C           2.6757   -1.2475    0.0439 C.ar    1  UNL1       -0.3017
     14 C           4.0574   -1.2918    0.0456 C.ar    1  UNL1       -0.0973
     15 C           4.7963   -0.1168    0.0031 C.ar    1  UNL1       -0.1849
     16 C           4.1311    1.0976   -0.0420 C.ar    1  UNL1       -0.1083
     17 C           2.7439    1.1584   -0.0450 C.ar    1  UNL1       -0.2880
     18 H           0.2113   -1.0022   -0.0046 H       1  UNL1        0.2483
     19 H           2.1060   -2.1688    0.0784 H       1  UNL1        0.1469
     20 H           4.5581   -2.2509    0.0811 H       1  UNL1        0.1472
     21 H           5.8779   -0.1501    0.0050 H       1  UNL1        0.1444
     22 H           4.6945    2.0217   -0.0763 H       1  UNL1        0.1452
     23 H           2.2369    2.1081   -0.0807 H       1  UNL1        0.1661
@<TRIPOS>BOND
     1     7     5    1
     2    23    17    1
     3    22    16    1
     4    17    16   ar
     5    17    12   ar
     6    16    15   ar
     7    10     1    1
     8    18    11    1
     9    11    12    1
    10    11     2   am
    11    12    13   ar
    12    15    21    1
    13    15    14   ar
    14     1     2    1
    15     1     4    2
    16     2     3    2
    17     8     5    1
    18     4     5    1
    19     4     9    1
    20     5     6    1
    21    13    14   ar
    22    13    19    1
    23    14    20    1
