@<TRIPOS>MOLECULE
GS-446-0.out
 29 29 0 0 0
SMALL
MULLIKEN_CHARGES
****
Gaussian 16 # wB97XD def2tzvp, opt=(calcfc, maxcycles=70, maxstep=10), freq=norama
@<TRIPOS>ATOM
      1 C          -0.4003    0.9594   -0.1713 C.2     1  UNL1       -0.0413
      2 C          -1.6872    0.2134   -0.4291 C.2     1  UNL1        0.2305
      3 O          -2.3647    0.4659   -1.4231 O.2     1  UNL1       -0.4978
      4 C          -0.4650    2.2857   -0.0525 C.2     1  UNL1       -0.1255
      5 C           0.6647    3.2502    0.0961 C.3     1  UNL1       -0.3862
      6 H           0.4938    4.1182   -0.5433 H       1  UNL1        0.1403
      7 H           0.7250    3.6217    1.1228 H       1  UNL1        0.1464
      8 H           1.6272    2.8105   -0.1607 H       1  UNL1        0.1448
      9 H          -1.4553    2.7305   -0.0867 H       1  UNL1        0.1469
     10 C           0.8426    0.1488   -0.1594 C.ar    1  UNL1        0.1539
     11 C           1.8403    0.3413    0.7951 C.ar    1  UNL1       -0.2472
     12 C           2.9885   -0.4358    0.7872 C.ar    1  UNL1       -0.1416
     13 C           3.1560   -1.4245   -0.1715 C.ar    1  UNL1       -0.1253
     14 C           2.1636   -1.6357   -1.1184 C.ar    1  UNL1       -0.1715
     15 C           1.0161   -0.8591   -1.1083 C.ar    1  UNL1       -0.1997
     16 H           1.7070    1.0922    1.5634 H       1  UNL1        0.1750
     17 H           3.7508   -0.2731    1.5387 H       1  UNL1        0.1430
     18 H           4.0515   -2.0328   -0.1759 H       1  UNL1        0.1457
     19 H           2.2825   -2.4085   -1.8673 H       1  UNL1        0.1435
     20 H           0.2462   -1.0321   -1.8515 H       1  UNL1        0.1488
     21 N          -2.0284   -0.7507    0.4510 N.am    1  UNL1       -0.0839
     22 C          -3.1572   -1.6166    0.1791 C.3     1  UNL1       -0.2881
     23 C          -1.3600   -0.9732    1.7176 C.3     1  UNL1       -0.2987
     24 H          -3.4425   -1.5248   -0.8643 H       1  UNL1        0.1464
     25 H          -2.8776   -2.6501    0.3913 H       1  UNL1        0.1406
     26 H          -4.0121   -1.3525    0.8073 H       1  UNL1        0.1428
     27 H          -0.7699   -0.1072    2.0020 H       1  UNL1        0.1608
     28 H          -2.1135   -1.1371    2.4896 H       1  UNL1        0.1520
     29 H          -0.7091   -1.8503    1.6740 H       1  UNL1        0.1453
@<TRIPOS>BOND
     1    19    14    1
     2    20    15    1
     3     3     2    2
     4    14    15   ar
     5    14    13   ar
     6    15    10   ar
     7    24    22    1
     8     6     5    1
     9     2     1    1
    10     2    21   am
    11    18    13    1
    12    13    12   ar
    13     1    10    1
    14     1     4    2
    15     8     5    1
    16    10    11   ar
    17     9     4    1
    18     4     5    1
    19     5     7    1
    20    22    25    1
    21    22    21    1
    22    22    26    1
    23    21    23    1
    24    12    11   ar
    25    12    17    1
    26    11    16    1
    27    29    23    1
    28    23    27    1
    29    23    28    1
