@<TRIPOS>MOLECULE
GS-448-0.out
 31 32 0 0 0
SMALL
MULLIKEN_CHARGES
****
Gaussian 16 # wB97XD def2tzvp, opt=(calcfc, maxcycles=70, maxstep=10), freq=norama
@<TRIPOS>ATOM
      1 C          -0.9124    1.2633    0.0286 C.2     1  UNL1        0.0084
      2 C           0.5178    1.6039    0.3277 C.2     1  UNL1        0.2561
      3 O           0.8198    2.6684    0.8320 O.2     1  UNL1       -0.3976
      4 C          -1.7130    2.2744   -0.3253 C.2     1  UNL1       -0.0851
      5 C          -3.1708    2.2239   -0.6235 C.3     1  UNL1       -0.3726
      6 H          -3.6763    3.0462   -0.1130 H       1  UNL1        0.1449
      7 H          -3.3447    2.3671   -1.6935 H       1  UNL1        0.1501
      8 H          -3.6309    1.2838   -0.3251 H       1  UNL1        0.1457
      9 H          -1.2516    3.2546   -0.3950 H       1  UNL1        0.1500
     10 C          -1.3518   -0.1473    0.1718 C.ar    1  UNL1        0.1135
     11 C          -2.0464   -0.8033   -0.8423 C.ar    1  UNL1       -0.2827
     12 C          -2.4402   -2.1241   -0.6919 C.ar    1  UNL1       -0.1241
     13 C          -2.1428   -2.8116    0.4760 C.ar    1  UNL1       -0.1343
     14 C          -1.4480   -2.1700    1.4918 C.ar    1  UNL1       -0.1568
     15 C          -1.0542   -0.8502    1.3384 C.ar    1  UNL1       -0.2137
     16 H          -2.2635   -0.2794   -1.7649 H       1  UNL1        0.1671
     17 H          -2.9754   -2.6190   -1.4924 H       1  UNL1        0.1435
     18 H          -2.4477   -3.8437    0.5927 H       1  UNL1        0.1456
     19 H          -1.2107   -2.6989    2.4061 H       1  UNL1        0.1434
     20 H          -0.5099   -0.3583    2.1363 H       1  UNL1        0.1506
     21 C           1.5864    0.6149   -0.0133 C.ar    1  UNL1        0.1035
     22 C           2.7303    0.5641    0.7787 C.ar    1  UNL1       -0.1984
     23 C           3.7535   -0.3171    0.4725 C.ar    1  UNL1       -0.1425
     24 C           3.6512   -1.1371   -0.6435 C.ar    1  UNL1       -0.1205
     25 C           2.5218   -1.0777   -1.4481 C.ar    1  UNL1       -0.1600
     26 C           1.4870   -0.2137   -1.1278 C.ar    1  UNL1       -0.1940
     27 H           2.8046    1.2149    1.6404 H       1  UNL1        0.1462
     28 H           4.6331   -0.3635    1.1016 H       1  UNL1        0.1473
     29 H           4.4532   -1.8224   -0.8869 H       1  UNL1        0.1497
     30 H           2.4449   -1.7087   -2.3241 H       1  UNL1        0.1466
     31 H           0.6069   -0.1753   -1.7563 H       1  UNL1        0.1701
@<TRIPOS>BOND
     1    30    25    1
     2    16    11    1
     3    31    26    1
     4     7     5    1
     5    17    12    1
     6    25    26   ar
     7    25    24   ar
     8    26    21   ar
     9    29    24    1
    10    11    12   ar
    11    11    10   ar
    12    12    13   ar
    13    24    23   ar
    14     5     4    1
    15     5     8    1
    16     5     6    1
    17     9     4    1
    18     4     1    2
    19    21     2    1
    20    21    22   ar
    21     1    10    1
    22     1     2    1
    23    10    15   ar
    24     2     3    2
    25    23    22   ar
    26    23    28    1
    27    13    18    1
    28    13    14   ar
    29    22    27    1
    30    15    14   ar
    31    15    20    1
    32    14    19    1
