@<TRIPOS>MOLECULE
GS-487-0.out
 36 37 0 0 0
SMALL
MULLIKEN_CHARGES
****
Gaussian 16 # wB97XD def2tzvp, opt=(calcfc, maxcycles=70, maxstep=10), freq=norama
@<TRIPOS>ATOM
      1 C          -1.3578    0.9401    0.0518 C.2     1  UNL1        0.0064
      2 C           0.1129    1.1434    0.2821 C.2     1  UNL1        0.3495
      3 O           0.5720    2.0957    0.8929 O.2     1  UNL1       -0.4765
      4 C          -2.1744    1.9719   -0.2117 C.2     1  UNL1        0.0556
      5 C          -3.6576    1.8001   -0.3708 C.3     1  UNL1       -0.3895
      6 H          -4.1739    2.5911    0.1784 H       1  UNL1        0.1432
      7 H          -3.9385    1.9133   -1.4215 H       1  UNL1        0.1499
      8 H          -4.0183    0.8360   -0.0213 H       1  UNL1        0.1460
      9 C          -1.7243    3.3924   -0.3898 C.3     1  UNL1       -0.3730
     10 H          -2.2660    3.8361   -1.2284 H       1  UNL1        0.1336
     11 H          -1.9828    3.9766    0.4976 H       1  UNL1        0.1447
     12 H          -0.6566    3.4912   -0.5569 H       1  UNL1        0.1366
     13 C          -1.8368   -0.4706    0.1240 C.ar    1  UNL1       -0.0080
     14 C          -2.3721   -1.1061   -0.9943 C.ar    1  UNL1       -0.2172
     15 C          -2.7928   -2.4267   -0.9262 C.ar    1  UNL1       -0.1370
     16 C          -2.6792   -3.1322    0.2621 C.ar    1  UNL1       -0.1234
     17 C          -2.1400   -2.5118    1.3814 C.ar    1  UNL1       -0.1595
     18 C          -1.7182   -1.1939    1.3104 C.ar    1  UNL1       -0.1713
     19 H          -2.4584   -0.5575   -1.9243 H       1  UNL1        0.1503
     20 H          -3.2076   -2.9044   -1.8048 H       1  UNL1        0.1446
     21 H          -3.0063   -4.1627    0.3166 H       1  UNL1        0.1467
     22 H          -2.0474   -3.0567    2.3124 H       1  UNL1        0.1438
     23 H          -1.2946   -0.7158    2.1859 H       1  UNL1        0.1456
     24 N           0.8868    0.1513   -0.2466 N.am    1  UNL1       -0.2405
     25 C           2.2746   -0.0362   -0.1774 C.ar    1  UNL1        0.3016
     26 C           2.7781   -1.2214   -0.7188 C.ar    1  UNL1       -0.3087
     27 C           4.1353   -1.4835   -0.6961 C.ar    1  UNL1       -0.1017
     28 C           5.0168   -0.5705   -0.1321 C.ar    1  UNL1       -0.1866
     29 C           4.5171    0.6054    0.4038 C.ar    1  UNL1       -0.1137
     30 C           3.1570    0.8840    0.3863 C.ar    1  UNL1       -0.2914
     31 H           0.3842   -0.5854   -0.7154 H       1  UNL1        0.2620
     32 H           2.0966   -1.9403   -1.1589 H       1  UNL1        0.1445
     33 H           4.5048   -2.4082   -1.1209 H       1  UNL1        0.1457
     34 H           6.0793   -0.7748   -0.1129 H       1  UNL1        0.1430
     35 H           5.1925    1.3278    0.8452 H       1  UNL1        0.1437
     36 H           2.7793    1.8026    0.8037 H       1  UNL1        0.1614
@<TRIPOS>BOND
     1    19    14    1
     2    20    15    1
     3     7     5    1
     4    10     9    1
     5    32    26    1
     6    33    27    1
     7    14    15   ar
     8    14    13   ar
     9    15    16   ar
    10    26    27   ar
    11    26    25   ar
    12    31    24    1
    13    27    28   ar
    14    12     9    1
    15     9     4    1
    16     9    11    1
    17     5     4    1
    18     5     8    1
    19     5     6    1
    20    24    25    1
    21    24     2   am
    22     4     1    2
    23    25    30   ar
    24    28    34    1
    25    28    29   ar
    26     1    13    1
    27     1     2    1
    28    13    18   ar
    29    16    21    1
    30    16    17   ar
    31     2     3    2
    32    30    29   ar
    33    30    36    1
    34    29    35    1
    35    18    17   ar
    36    18    23    1
    37    17    22    1
