@<TRIPOS>MOLECULE
GS-403-0.out
 33 34 0 0 0
SMALL
MULLIKEN_CHARGES
****
Gaussian 16 # wB97XD def2tzvp, opt=(calcfc, maxcycles=70, maxstep=10), freq=norama
@<TRIPOS>ATOM
      1 C          -0.4702    0.1576    0.0433 C.2     1  UNL1        0.0476
      2 C          -0.0670    1.6063   -0.0701 C.2     1  UNL1        0.1935
      3 O          -0.4122    2.2875   -1.0262 O.2     1  UNL1       -0.4556
      4 C           0.4304   -0.8311    0.1153 C.2     1  UNL1        0.0294
      5 C           0.0623   -2.2797    0.2683 C.3     1  UNL1       -0.3695
      6 H           0.2822   -2.8244   -0.6535 H       1  UNL1        0.1478
      7 H           0.6670   -2.7359    1.0544 H       1  UNL1        0.1419
      8 H          -0.9880   -2.4198    0.5118 H       1  UNL1        0.1455
      9 C           1.8916   -0.5622    0.0139 C.ar    1  UNL1        0.0808
     10 C           2.7580   -0.9334    1.0409 C.ar    1  UNL1       -0.2257
     11 C           4.1163   -0.6749    0.9465 C.ar    1  UNL1       -0.1479
     12 C           4.6325   -0.0588   -0.1854 C.ar    1  UNL1       -0.1350
     13 C           3.7811    0.2984   -1.2204 C.ar    1  UNL1       -0.1542
     14 C           2.4206    0.0486   -1.1208 C.ar    1  UNL1       -0.1935
     15 H           2.3651   -1.4094    1.9313 H       1  UNL1        0.1534
     16 H           4.7738   -0.9554    1.7597 H       1  UNL1        0.1441
     17 H           5.6942    0.1385   -0.2607 H       1  UNL1        0.1458
     18 H           4.1761    0.7721   -2.1103 H       1  UNL1        0.1438
     19 H           1.7585    0.3279   -1.9311 H       1  UNL1        0.1538
     20 C          -1.9419   -0.0485    0.0172 C.ar    1  UNL1        0.1686
     21 C          -2.7519    0.5780    0.9630 C.ar    1  UNL1       -0.2059
     22 C          -4.1268    0.4045    0.9429 C.ar    1  UNL1       -0.1635
     23 C          -4.7145   -0.3900   -0.0319 C.ar    1  UNL1       -0.1330
     24 C          -3.9187   -1.0067   -0.9864 C.ar    1  UNL1       -0.1322
     25 C          -2.5427   -0.8350   -0.9627 C.ar    1  UNL1       -0.2667
     26 H          -2.2998    1.2018    1.7255 H       1  UNL1        0.1442
     27 H          -4.7410    0.8913    1.6900 H       1  UNL1        0.1433
     28 H          -5.7886   -0.5240   -0.0498 H       1  UNL1        0.1458
     29 H          -4.3699   -1.6211   -1.7554 H       1  UNL1        0.1435
     30 H          -1.9250   -1.3116   -1.7137 H       1  UNL1        0.1554
     31 N           0.6311    2.1086    0.9635 N.am    1  UNL1       -0.4120
     32 H           0.9708    3.0542    0.9161 H       1  UNL1        0.2762
     33 H           0.9508    1.5182    1.7098 H       1  UNL1        0.2903
@<TRIPOS>BOND
     1    18    13    1
     2    19    14    1
     3    29    24    1
     4    30    25    1
     5    13    14   ar
     6    13    12   ar
     7    14     9   ar
     8     3     2    2
     9    24    25   ar
    10    24    23   ar
    11    25    20   ar
    12     6     5    1
    13    17    12    1
    14    12    11   ar
    15     2     1    1
    16     2    31   am
    17    28    23    1
    18    23    22   ar
    19     9     4    1
    20     9    10   ar
    21    20     1    1
    22    20    21   ar
    23     1     4    2
    24     4     5    1
    25     5     8    1
    26     5     7    1
    27    32    31    1
    28    22    21   ar
    29    22    27    1
    30    11    10   ar
    31    11    16    1
    32    21    26    1
    33    31    33    1
    34    10    15    1
