@<TRIPOS>MOLECULE
GS-457-0.out
 14 13 0 0 0
SMALL
MULLIKEN_CHARGES
****
Gaussian 16 # wB97XD def2tzvp, opt=(calcfc, maxcycles=70, maxstep=10), freq=norama
@<TRIPOS>ATOM
      1 C          -0.0659    0.0446    0.0000 C.2     1  UNL1       -0.0179
      2 C          -1.3138   -0.7292    0.0000 C.2     1  UNL1        0.1458
      3 O          -2.4250   -0.2457   -0.0000 O.2     1  UNL1       -0.3989
      4 C           1.0654   -0.6718   -0.0000 C.2     1  UNL1       -0.0896
      5 C           2.4685   -0.1795    0.0000 C.3     1  UNL1       -0.3343
      6 H           2.9959   -0.5663   -0.8755 H       1  UNL1        0.1446
      7 H           2.5453    0.9054    0.0000 H       1  UNL1        0.1230
      8 H           2.9959   -0.5664    0.8755 H       1  UNL1        0.1446
      9 H           0.9591   -1.7543   -0.0000 H       1  UNL1        0.1495
     10 C          -0.1879    1.5363   -0.0000 C.3     1  UNL1       -0.3493
     11 H          -0.7456    1.8712    0.8768 H       1  UNL1        0.1357
     12 H           0.7807    2.0304   -0.0000 H       1  UNL1        0.1216
     13 H          -0.7456    1.8712   -0.8768 H       1  UNL1        0.1357
     14 H          -1.1834   -1.8284    0.0000 H       1  UNL1        0.0895
@<TRIPOS>BOND
     1    13    10    1
     2     6     5    1
     3    12    10    1
     4     4     9    1
     5     4     1    2
     6     4     5    1
     7     3     2    2
     8    10     1    1
     9    10    11    1
    10     1     2    1
    11     2    14    1
    12     5     7    1
    13     5     8    1
