@<TRIPOS>MOLECULE
GS-481-0.out
 24 24 0 0 0
SMALL
MULLIKEN_CHARGES
****
Gaussian 16 # wB97XD def2tzvp, opt=(calcfc, maxcycles=70, maxstep=10), freq=norama
@<TRIPOS>ATOM
      1 C           0.8797   -0.2477   -0.0734 C.2     1  UNL1       -0.0109
      2 C           1.3659   -1.5940   -0.4249 C.2     1  UNL1        0.1218
      3 O           2.5083   -1.9990   -0.3766 O.2     1  UNL1       -0.3956
      4 C           1.7057    0.7902    0.1854 C.2     1  UNL1        0.0655
      5 C           1.1969    2.1314    0.6150 C.3     1  UNL1       -0.3966
      6 H           1.7795    2.4762    1.4728 H       1  UNL1        0.1537
      7 H           1.3600    2.8606   -0.1839 H       1  UNL1        0.1573
      8 H           0.1420    2.1320    0.8756 H       1  UNL1        0.1466
      9 C           3.2000    0.7131    0.0907 C.3     1  UNL1       -0.3567
     10 H           3.6185    1.7150   -0.0065 H       1  UNL1        0.1363
     11 H           3.6090    0.2694    1.0026 H       1  UNL1        0.1483
     12 H           3.5335    0.0929   -0.7372 H       1  UNL1        0.1420
     13 C          -0.6057   -0.1305   -0.0403 C.ar    1  UNL1        0.1436
     14 C          -1.2810    0.7244   -0.9092 C.ar    1  UNL1       -0.2464
     15 C          -2.6648    0.8081   -0.8902 C.ar    1  UNL1       -0.1279
     16 C          -3.3980    0.0292   -0.0059 C.ar    1  UNL1       -0.1467
     17 C          -2.7384   -0.8341    0.8567 C.ar    1  UNL1       -0.1380
     18 C          -1.3534   -0.9140    0.8366 C.ar    1  UNL1       -0.2399
     19 H          -0.7133    1.3288   -1.6064 H       1  UNL1        0.1526
     20 H          -3.1719    1.4801   -1.5712 H       1  UNL1        0.1440
     21 H          -4.4786    0.0929    0.0087 H       1  UNL1        0.1457
     22 H          -3.3022   -1.4458    1.5497 H       1  UNL1        0.1439
     23 H          -0.8455   -1.5860    1.5188 H       1  UNL1        0.1508
     24 H           0.5618   -2.2808   -0.7530 H       1  UNL1        0.1065
@<TRIPOS>BOND
     1    19    14    1
     2    20    15    1
     3    14    15   ar
     4    14    13   ar
     5    15    16   ar
     6    24     2    1
     7    12     9    1
     8     2     3    2
     9     2     1    1
    10     7     5    1
    11     1    13    1
    12     1     4    2
    13    13    18   ar
    14    10     9    1
    15    16    21    1
    16    16    17   ar
    17     9     4    1
    18     9    11    1
    19     4     5    1
    20     5     8    1
    21     5     6    1
    22    18    17   ar
    23    18    23    1
    24    17    22    1
