@<TRIPOS>MOLECULE
GS-454-0.out
 19 18 0 0 0
SMALL
MULLIKEN_CHARGES
****
Gaussian 16 # wB97XD def2tzvp, opt=(calcfc, maxcycles=70, maxstep=10), freq=norama
@<TRIPOS>ATOM
      1 C           0.9603    0.2889   -0.0868 C.2     1  UNL1       -0.3078
      2 C          -0.3081   -0.4883   -0.0178 C.2     1  UNL1        0.3503
      3 O          -0.3001   -1.7197    0.0042 O.2     1  UNL1       -0.5293
      4 C           2.1362   -0.3117    0.0608 C.2     1  UNL1       -0.0699
      5 C           3.4590    0.3686   -0.0062 C.3     1  UNL1       -0.3281
      6 H           4.0727   -0.0741   -0.7947 H       1  UNL1        0.1373
      7 H           3.3598    1.4371   -0.1970 H       1  UNL1        0.1280
      8 H           4.0060    0.2279    0.9295 H       1  UNL1        0.1375
      9 H           2.1400   -1.3820    0.2443 H       1  UNL1        0.1424
     10 H           0.9231    1.3540   -0.2735 H       1  UNL1        0.1636
     11 N          -1.4605    0.2219    0.0090 N.am    1  UNL1       -0.0964
     12 C          -2.7357   -0.4664   -0.0224 C.3     1  UNL1       -0.2952
     13 C          -1.5167    1.6749    0.0519 C.3     1  UNL1       -0.3242
     14 H          -2.5656   -1.5298   -0.1552 H       1  UNL1        0.1466
     15 H          -3.2831   -0.3047    0.9095 H       1  UNL1        0.1407
     16 H          -3.3414   -0.0905   -0.8497 H       1  UNL1        0.1429
     17 H          -0.8434    2.0810    0.8049 H       1  UNL1        0.1525
     18 H          -1.2851    2.1230   -0.9173 H       1  UNL1        0.1519
     19 H          -2.5285    1.9665    0.3255 H       1  UNL1        0.1575
@<TRIPOS>BOND
     1    18    13    1
     2    16    12    1
     3     6     5    1
     4    10     1    1
     5     7     5    1
     6    14    12    1
     7     1     2    1
     8     1     4    2
     9    12    11    1
    10    12    15    1
    11     2     3    2
    12     2    11   am
    13     5     4    1
    14     5     8    1
    15    11    13    1
    16    13    19    1
    17    13    17    1
    18     4     9    1
