@<TRIPOS>MOLECULE
GS-445-0.out
 26 26 0 0 0
SMALL
MULLIKEN_CHARGES
****
Gaussian 16 # wB97XD def2tzvp, opt=(calcfc, maxcycles=70, maxstep=10), freq=norama
@<TRIPOS>ATOM
      1 C          -0.6431    0.8241   -0.0494 C.2     1  UNL1       -0.0288
      2 C          -1.8967   -0.0063   -0.0003 C.2     1  UNL1        0.3444
      3 O          -3.0189    0.4842   -0.0857 O.2     1  UNL1       -0.5113
      4 C          -0.7777    2.1489   -0.0935 C.2     1  UNL1       -0.0842
      5 C           0.3170    3.1562   -0.1521 C.3     1  UNL1       -0.3443
      6 H           0.1766    3.8092   -1.0170 H       1  UNL1        0.1411
      7 H           0.2839    3.7991    0.7313 H       1  UNL1        0.1417
      8 H           1.3042    2.7007   -0.2122 H       1  UNL1        0.1380
      9 H          -1.7933    2.5321   -0.0930 H       1  UNL1        0.1473
     10 C           0.6819    0.1449   -0.0300 C.ar    1  UNL1        0.0246
     11 C           1.4578    0.1375    1.1269 C.ar    1  UNL1       -0.2025
     12 C           2.6926   -0.4940    1.1463 C.ar    1  UNL1       -0.1426
     13 C           3.1668   -1.1305    0.0084 C.ar    1  UNL1       -0.1285
     14 C           2.4008   -1.1319   -1.1488 C.ar    1  UNL1       -0.1365
     15 C           1.1666   -0.4997   -1.1669 C.ar    1  UNL1       -0.2176
     16 H           1.0878    0.6336    2.0160 H       1  UNL1        0.1448
     17 H           3.2847   -0.4891    2.0528 H       1  UNL1        0.1443
     18 H           4.1301   -1.6243    0.0231 H       1  UNL1        0.1469
     19 H           2.7658   -1.6241   -2.0413 H       1  UNL1        0.1451
     20 H           0.5711   -0.5019   -2.0721 H       1  UNL1        0.1443
     21 N          -1.7154   -1.3295    0.1561 N.am    1  UNL1       -0.2911
     22 C          -2.8237   -2.2528    0.2305 C.3     1  UNL1       -0.2652
     23 H          -0.7794   -1.6870    0.2277 H       1  UNL1        0.2743
     24 H          -2.4307   -3.2592    0.3522 H       1  UNL1        0.1459
     25 H          -3.4708   -2.0202    1.0779 H       1  UNL1        0.1345
     26 H          -3.4250   -2.2149   -0.6793 H       1  UNL1        0.1352
@<TRIPOS>BOND
     1    20    15    1
     2    19    14    1
     3    15    14   ar
     4    15    10   ar
     5    14    13   ar
     6     6     5    1
     7    26    22    1
     8     8     5    1
     9     5     4    1
    10     5     7    1
    11     4     9    1
    12     4     1    2
    13     3     2    2
    14     1    10    1
    15     1     2    1
    16    10    11   ar
    17     2    21   am
    18    13    18    1
    19    13    12   ar
    20    21    23    1
    21    21    22    1
    22    22    24    1
    23    22    25    1
    24    11    12   ar
    25    11    16    1
    26    12    17    1
