@<TRIPOS>MOLECULE
GS-460-0.out
 18 17 0 0 0
SMALL
MULLIKEN_CHARGES
****
Gaussian 16 # wB97XD def2tzvp, opt=(calcfc, maxcycles=70, maxstep=10), freq=norama
@<TRIPOS>ATOM
      1 C          -0.7226    0.3238    0.0000 C.2     1  UNL1       -0.1313
      2 C           0.7658    0.3624   -0.0000 C.2     1  UNL1        0.4376
      3 O           1.4014    1.3932   -0.0001 O.2     1  UNL1       -0.4412
      4 C          -1.3577   -0.8509   -0.0000 C.2     1  UNL1       -0.0781
      5 C          -2.8271   -1.0964   -0.0000 C.3     1  UNL1       -0.3344
      6 H          -3.1021   -1.6904   -0.8753 H       1  UNL1        0.1406
      7 H          -3.1021   -1.6903    0.8753 H       1  UNL1        0.1406
      8 H          -3.4240   -0.1875   -0.0001 H       1  UNL1        0.1198
      9 H          -0.7462   -1.7457   -0.0000 H       1  UNL1        0.1537
     10 C          -1.3723    1.6760    0.0000 C.3     1  UNL1       -0.3244
     11 H          -1.0665    2.2497    0.8767 H       1  UNL1        0.1331
     12 H          -1.0667    2.2496   -0.8767 H       1  UNL1        0.1331
     13 H          -2.4568    1.6052    0.0002 H       1  UNL1        0.1167
     14 O           1.3495   -0.8378    0.0000 O.3     1  UNL1       -0.2864
     15 C           2.7755   -0.8518    0.0000 C.3     1  UNL1       -0.1961
     16 H           3.0597   -1.9001    0.0001 H       1  UNL1        0.1450
     17 H           3.1642   -0.3563   -0.8891 H       1  UNL1        0.1359
     18 H           3.1643   -0.3561    0.8891 H       1  UNL1        0.1359
@<TRIPOS>BOND
     1    17    15    1
     2    12    10    1
     3     6     5    1
     4     3     2    2
     5     8     5    1
     6     9     4    1
     7     5     4    1
     8     5     7    1
     9     4     1    2
    10     2     1    1
    11     2    14    1
    12    15    14    1
    13    15    16    1
    14    15    18    1
    15     1    10    1
    16    10    13    1
    17    10    11    1
