@<TRIPOS>MOLECULE
GS-440-1.out
 31 32 0 0 0
SMALL
MULLIKEN_CHARGES
****
Gaussian 16 # wB97XD def2tzvp, opt=(calcfc, maxcycles=70, maxstep=1), freq=noraman
@<TRIPOS>ATOM
      1 C          -1.8083   -0.2885    0.0572 C.2     1  UNL1        0.0351
      2 C          -0.8371   -1.1865    0.7781 C.2     1  UNL1        0.2044
      3 O          -1.1549   -1.7007    1.8280 O.2     1  UNL1       -0.3632
      4 C          -1.5667    0.9679   -0.3227 C.2     1  UNL1       -0.0420
      5 C          -2.5559    1.8462   -1.0231 C.3     1  UNL1       -0.3480
      6 H          -2.1002    2.2765   -1.9168 H       1  UNL1        0.1457
      7 H          -3.4577    1.3136   -1.3114 H       1  UNL1        0.1340
      8 H          -2.8289    2.6809   -0.3733 H       1  UNL1        0.1519
      9 C          -0.2546    1.5895   -0.0005 C.ar    1  UNL1        0.2412
     10 C           0.5478    2.1089   -1.0150 C.ar    1  UNL1       -0.2367
     11 C           1.7817    2.6621   -0.7192 C.ar    1  UNL1       -0.1462
     12 C           2.2230    2.7230    0.5966 C.ar    1  UNL1       -0.1309
     13 C           1.4208    2.2309    1.6139 C.ar    1  UNL1       -0.1473
     14 C           0.1883    1.6678    1.3168 C.ar    1  UNL1       -0.2316
     15 H           0.2195    2.0520   -2.0454 H       1  UNL1        0.1577
     16 H           2.4039    3.0440   -1.5185 H       1  UNL1        0.1457
     17 H           3.1876    3.1573    0.8260 H       1  UNL1        0.1473
     18 H           1.7526    2.2833    2.6430 H       1  UNL1        0.1458
     19 H          -0.4380    1.2890    2.1149 H       1  UNL1        0.1605
     20 CL         -3.3608   -1.0501   -0.1715 Cl      1  UNL1       -0.1033
     21 C           0.4854   -1.4562    0.1496 C.ar    1  UNL1        0.1463
     22 C           1.5372   -1.8792    0.9599 C.ar    1  UNL1       -0.2405
     23 C           2.7704   -2.1666    0.4039 C.ar    1  UNL1       -0.1137
     24 C           2.9553   -2.0539   -0.9690 C.ar    1  UNL1       -0.1274
     25 C           1.9074   -1.6477   -1.7821 C.ar    1  UNL1       -0.1396
     26 C           0.6773   -1.3398   -1.2240 C.ar    1  UNL1       -0.2122
     27 H           1.3791   -1.9667    2.0268 H       1  UNL1        0.1493
     28 H           3.5899   -2.4789    1.0380 H       1  UNL1        0.1494
     29 H           3.9197   -2.2826   -1.4046 H       1  UNL1        0.1514
     30 H           2.0496   -1.5646   -2.8516 H       1  UNL1        0.1490
     31 H          -0.1364   -1.0124   -1.8579 H       1  UNL1        0.1681
@<TRIPOS>BOND
     1    30    25    1
     2    15    10    1
     3     6     5    1
     4    31    26    1
     5    25    26   ar
     6    25    24   ar
     7    16    11    1
     8    29    24    1
     9     7     5    1
    10    26    21   ar
    11     5     8    1
    12     5     4    1
    13    10    11   ar
    14    10     9   ar
    15    24    23   ar
    16    11    12   ar
    17     4     9    1
    18     4     1    2
    19    20     1    1
    20     9    14   ar
    21     1     2    1
    22    21     2    1
    23    21    22   ar
    24    23    22   ar
    25    23    28    1
    26    12    17    1
    27    12    13   ar
    28     2     3    2
    29    22    27    1
    30    14    13   ar
    31    14    19    1
    32    13    18    1
