@<TRIPOS>MOLECULE
GS-49-1.out
 18 18 0 0 0
SMALL
MULLIKEN_CHARGES
****
Gaussian 16 # wB97XD def2tzvp, opt=(maxcycles=70, maxstep=1), freq=noraman, scrf=(
@<TRIPOS>ATOM
      1 C          -1.9811    0.2517   -0.0001 C.2     1  UNL1       -0.0768
      2 C          -3.3338   -0.2881    0.0001 C.2     1  UNL1        0.1389
      3 O          -4.3426    0.3851   -0.0003 O.2     1  UNL1       -0.3938
      4 C          -0.9340   -0.5823    0.0003 C.2     1  UNL1       -0.1657
      5 C           0.4854   -0.2357    0.0002 C.ar    1  UNL1        0.1959
      6 C           0.9420    1.0858    0.0002 C.ar    1  UNL1       -0.2177
      7 C           2.2972    1.3597    0.0001 C.ar    1  UNL1       -0.1335
      8 C           3.2217    0.3214   -0.0002 C.ar    1  UNL1       -0.1326
      9 C           2.7829   -0.9938   -0.0002 C.ar    1  UNL1       -0.1336
     10 C           1.4247   -1.2686   -0.0000 C.ar    1  UNL1       -0.2165
     11 H           0.2369    1.9067    0.0004 H       1  UNL1        0.1459
     12 H           2.6373    2.3873    0.0001 H       1  UNL1        0.1489
     13 H           4.2818    0.5404   -0.0003 H       1  UNL1        0.1511
     14 H           3.4977   -1.8065   -0.0004 H       1  UNL1        0.1488
     15 H           1.0830   -2.2968   -0.0001 H       1  UNL1        0.1465
     16 H          -1.1461   -1.6493    0.0007 H       1  UNL1        0.1539
     17 H          -1.8819    1.3308   -0.0005 H       1  UNL1        0.1456
     18 H          -3.3989   -1.3933    0.0006 H       1  UNL1        0.0945
@<TRIPOS>BOND
     1    17     1    1
     2    14     9    1
     3     3     2    2
     4    13     8    1
     5     9     8   ar
     6     9    10   ar
     7     8     7   ar
     8     1     2    1
     9     1     4    2
    10    15    10    1
    11    10     5   ar
    12     7    12    1
    13     7     6   ar
    14     2    18    1
    15     5     6   ar
    16     5     4    1
    17     6    11    1
    18     4    16    1
