@<TRIPOS>MOLECULE
GS-443-0.out
 23 23 0 0 0
SMALL
MULLIKEN_CHARGES
****
Gaussian 16 # wB97XD def2tzvp, opt=(calcfc, maxcycles=70, maxstep=10), freq=norama
@<TRIPOS>ATOM
      1 C           1.0673    0.2600   -0.0300 C.2     1  UNL1       -0.0189
      2 C           1.9731   -0.9322    0.1128 C.2     1  UNL1        0.3041
      3 O           3.1934   -0.8464    0.0447 O.2     1  UNL1       -0.4894
      4 C           1.6368    1.4592   -0.1471 C.2     1  UNL1       -0.0867
      5 C           0.9413    2.7658   -0.3031 C.3     1  UNL1       -0.3432
      6 H           1.1755    3.4182    0.5421 H       1  UNL1        0.1427
      7 H           1.3045    3.2755   -1.1988 H       1  UNL1        0.1421
      8 H          -0.1402    2.6610   -0.3714 H       1  UNL1        0.1384
      9 H           2.7218    1.4840   -0.1327 H       1  UNL1        0.1508
     10 C          -0.4083    0.0609   -0.0174 C.ar    1  UNL1        0.0276
     11 C          -1.0641   -0.4655   -1.1289 C.ar    1  UNL1       -0.2122
     12 C          -2.4388   -0.6487   -1.1171 C.ar    1  UNL1       -0.1347
     13 C          -3.1766   -0.3095    0.0083 C.ar    1  UNL1       -0.1303
     14 C          -2.5332    0.2133    1.1207 C.ar    1  UNL1       -0.1416
     15 C          -1.1581    0.3951    1.1079 C.ar    1  UNL1       -0.2020
     16 H          -0.4911   -0.7298   -2.0098 H       1  UNL1        0.1443
     17 H          -2.9345   -1.0543   -1.9900 H       1  UNL1        0.1453
     18 H          -4.2496   -0.4524    0.0178 H       1  UNL1        0.1471
     19 H          -3.1024    0.4800    2.0022 H       1  UNL1        0.1446
     20 H          -0.6565    0.8030    1.9770 H       1  UNL1        0.1453
     21 N           1.3587   -2.1110    0.3331 N.am    1  UNL1       -0.4391
     22 H           1.9179   -2.9385    0.4421 H       1  UNL1        0.2739
     23 H           0.3599   -2.1882    0.3962 H       1  UNL1        0.2918
@<TRIPOS>BOND
     1    16    11    1
     2    17    12    1
     3     7     5    1
     4    11    12   ar
     5    11    10   ar
     6    12    13   ar
     7     8     5    1
     8     5     4    1
     9     5     6    1
    10     4     9    1
    11     4     1    2
    12     1    10    1
    13     1     2    1
    14    10    15   ar
    15    13    18    1
    16    13    14   ar
    17     3     2    2
    18     2    21   am
    19    21    23    1
    20    21    22    1
    21    15    14   ar
    22    15    20    1
    23    14    19    1
