@<TRIPOS>MOLECULE
GS-495-0.out
 26 26 0 0 0
SMALL
MULLIKEN_CHARGES
****
Gaussian 16 # wB97XD def2tzvp, opt=(calcfc, maxcycles=70, maxstep=10), freq=norama
@<TRIPOS>ATOM
      1 C           2.3869    0.7096   -0.4328 C.2     1  UNL1       -0.3151
      2 C           0.9507    1.0207   -0.2087 C.2     1  UNL1        0.4353
      3 O           0.5923    2.1603    0.0516 O.2     1  UNL1       -0.4869
      4 C           3.0966   -0.2981    0.0805 C.2     1  UNL1        0.0627
      5 C           4.5609   -0.4206   -0.2207 C.3     1  UNL1       -0.3485
      6 H           4.7753   -1.4078   -0.6386 H       1  UNL1        0.1360
      7 H           4.9008    0.3385   -0.9237 H       1  UNL1        0.1305
      8 H           5.1446   -0.3348    0.6994 H       1  UNL1        0.1405
      9 C           2.5597   -1.3614    0.9949 C.3     1  UNL1       -0.4035
     10 H           2.4853   -2.3137    0.4619 H       1  UNL1        0.1584
     11 H           3.2572   -1.5190    1.8198 H       1  UNL1        0.1419
     12 H           1.5838   -1.1226    1.4116 H       1  UNL1        0.1499
     13 H           2.8926    1.4663   -1.0227 H       1  UNL1        0.1506
     14 N           0.0928   -0.0276   -0.3571 N.am    1  UNL1       -0.2846
     15 C          -1.2984   -0.0787   -0.1774 C.ar    1  UNL1        0.3116
     16 C          -2.0568    0.9889    0.2995 C.ar    1  UNL1       -0.3001
     17 C          -3.4279    0.8375    0.4560 C.ar    1  UNL1       -0.1047
     18 C          -4.0584   -0.3570    0.1469 C.ar    1  UNL1       -0.1887
     19 C          -3.2991   -1.4188   -0.3267 C.ar    1  UNL1       -0.0964
     20 C          -1.9325   -1.2832   -0.4880 C.ar    1  UNL1       -0.3049
     21 H           0.5135   -0.8862   -0.6715 H       1  UNL1        0.2768
     22 H          -1.5761    1.9227    0.5402 H       1  UNL1        0.1612
     23 H          -4.0069    1.6739    0.8274 H       1  UNL1        0.1443
     24 H          -5.1281   -0.4618    0.2727 H       1  UNL1        0.1432
     25 H          -3.7721   -2.3609   -0.5732 H       1  UNL1        0.1461
     26 H          -1.3472   -2.1170   -0.8578 H       1  UNL1        0.1443
@<TRIPOS>BOND
     1    13     1    1
     2     7     5    1
     3    26    20    1
     4    21    14    1
     5     6     5    1
     6    25    19    1
     7    20    19   ar
     8    20    15   ar
     9     1     2    1
    10     1     4    2
    11    14     2   am
    12    14    15    1
    13    19    18   ar
    14     5     4    1
    15     5     8    1
    16     2     3    2
    17    15    16   ar
    18     4     9    1
    19    18    24    1
    20    18    17   ar
    21    16    17   ar
    22    16    22    1
    23    17    23    1
    24    10     9    1
    25     9    12    1
    26     9    11    1
