@<TRIPOS>MOLECULE
GS-44-1.out
 32 33 0 0 0
SMALL
MULLIKEN_CHARGES
****
Gaussian 16 # wB97XD def2tzvp, opt=(maxcycles=70, maxstep=1), freq=noraman, scrf=(
@<TRIPOS>ATOM
      1 C           0.7165   -0.7673   -0.0657 C.2     1  UNL1       -0.0114
      2 C           1.9497   -1.6105   -0.0701 C.2     1  UNL1        0.4249
      3 O           1.9703   -2.8095   -0.2259 O.2     1  UNL1       -0.4369
      4 C          -0.4494   -1.4244   -0.1026 C.2     1  UNL1       -0.1613
      5 C          -1.8196   -0.9005   -0.1155 C.ar    1  UNL1        0.2279
      6 C          -2.1733    0.3525   -0.6240 C.ar    1  UNL1       -0.2177
      7 C          -3.4937    0.7690   -0.6123 C.ar    1  UNL1       -0.1552
      8 C          -4.4851   -0.0502   -0.0886 C.ar    1  UNL1       -0.1296
      9 C          -4.1504   -1.3017    0.4074 C.ar    1  UNL1       -0.1489
     10 C          -2.8320   -1.7254    0.3814 C.ar    1  UNL1       -0.2328
     11 H          -1.4176    1.0005   -1.0445 H       1  UNL1        0.1799
     12 H          -3.7510    1.7394   -1.0172 H       1  UNL1        0.1438
     13 H          -5.5152    0.2823   -0.0771 H       1  UNL1        0.1478
     14 H          -4.9175   -1.9524    0.8074 H       1  UNL1        0.1456
     15 H          -2.5764   -2.7090    0.7575 H       1  UNL1        0.1432
     16 H          -0.3777   -2.5076   -0.1028 H       1  UNL1        0.1568
     17 C           0.8573    0.7084    0.0351 C.ar    1  UNL1        0.1350
     18 C           0.4739    1.3658    1.1999 C.ar    1  UNL1       -0.2224
     19 C           0.5666    2.7463    1.2926 C.ar    1  UNL1       -0.1514
     20 C           1.0451    3.4850    0.2202 C.ar    1  UNL1       -0.1250
     21 C           1.4377    2.8353   -0.9422 C.ar    1  UNL1       -0.1459
     22 C           1.3484    1.4551   -1.0321 C.ar    1  UNL1       -0.2316
     23 H           0.0913    0.7899    2.0336 H       1  UNL1        0.1457
     24 H           0.2625    3.2455    2.2039 H       1  UNL1        0.1431
     25 H           1.1142    4.5631    0.2900 H       1  UNL1        0.1457
     26 H           1.8131    3.4055   -1.7825 H       1  UNL1        0.1437
     27 H           1.6515    0.9519   -1.9422 H       1  UNL1        0.1405
     28 O           3.0488   -0.8867    0.1312 O.3     1  UNL1       -0.2694
     29 C           4.2869   -1.5972    0.1458 C.3     1  UNL1       -0.2106
     30 H           5.0546   -0.8466    0.3084 H       1  UNL1        0.1469
     31 H           4.2968   -2.3293    0.9525 H       1  UNL1        0.1397
     32 H           4.4473   -2.1029   -0.8056 H       1  UNL1        0.1397
@<TRIPOS>BOND
     1    27    22    1
     2    26    21    1
     3    11     6    1
     4    22    21   ar
     5    22    17   ar
     6    12     7    1
     7    21    20   ar
     8    32    29    1
     9     6     7   ar
    10     6     5   ar
    11     7     8   ar
    12     3     2    2
    13     5     4    1
    14     5    10   ar
    15    16     4    1
    16     4     1    2
    17     8    13    1
    18     8     9   ar
    19     2     1    1
    20     2    28    1
    21     1    17    1
    22    17    18   ar
    23    28    29    1
    24    29    30    1
    25    29    31    1
    26    20    25    1
    27    20    19   ar
    28    10     9   ar
    29    10    15    1
    30     9    14    1
    31    18    19   ar
    32    18    23    1
    33    19    24    1
