@<TRIPOS>MOLECULE
GS-498-0.out
 20 19 0 0 0
SMALL
MULLIKEN_CHARGES
****
Gaussian 16 # wB97XD def2tzvp, opt=(calcfc, maxcycles=70, maxstep=10), freq=norama
@<TRIPOS>ATOM
      1 C           0.0052    0.4378   -0.1316 C.2     1  UNL1       -0.0908
      2 C           1.2669   -0.3511   -0.1055 C.2     1  UNL1        0.2820
      3 O           1.3635   -1.4650   -0.5869 O.2     1  UNL1       -0.4217
      4 C          -1.1906   -0.1544    0.0348 C.2     1  UNL1        0.0670
      5 C          -2.4694    0.6302    0.0889 C.3     1  UNL1       -0.3590
      6 H          -2.8737    0.5991    1.1049 H       1  UNL1        0.1460
      7 H          -2.3633    1.6719   -0.2003 H       1  UNL1        0.1251
      8 H          -3.2169    0.1626   -0.5571 H       1  UNL1        0.1387
      9 C          -1.4072   -1.6274    0.2360 C.3     1  UNL1       -0.3597
     10 H          -2.2101   -1.7817    0.9602 H       1  UNL1        0.1269
     11 H          -1.7338   -2.0849   -0.7022 H       1  UNL1        0.1405
     12 H          -0.5180   -2.1560    0.5654 H       1  UNL1        0.1331
     13 C           0.1627    1.9371   -0.2691 C.3     1  UNL1       -0.4188
     14 H           1.1549    2.2023   -0.6301 H       1  UNL1        0.1397
     15 H          -0.5515    2.3435   -0.9843 H       1  UNL1        0.1452
     16 H           0.0106    2.4549    0.6813 H       1  UNL1        0.1535
     17 C           2.4729    0.2890    0.5449 C.3     1  UNL1       -0.3959
     18 H           2.1972    0.9622    1.3562 H       1  UNL1        0.1486
     19 H           3.1343   -0.4938    0.9110 H       1  UNL1        0.1400
     20 H           3.0186    0.8726   -0.2007 H       1  UNL1        0.1595
@<TRIPOS>BOND
     1    15    13    1
     2    11     9    1
     3    14    13    1
     4     3     2    2
     5     8     5    1
     6    13     1    1
     7    13    16    1
     8    20    17    1
     9     7     5    1
    10     1     2    1
    11     1     4    2
    12     2    17    1
    13     4     5    1
    14     4     9    1
    15     5     6    1
    16     9    12    1
    17     9    10    1
    18    17    19    1
    19    17    18    1
