@<TRIPOS>MOLECULE
GS-419-0.out
 26 26 0 0 0
SMALL
MULLIKEN_CHARGES
****
Gaussian 16 # wB97XD def2tzvp, opt=(calcfc, maxcycles=70, maxstep=10), freq=norama
@<TRIPOS>ATOM
      1 C           1.7375    0.2850    0.0076 C.2     1  UNL1        0.0229
      2 C           1.6061   -1.2002    0.2252 C.2     1  UNL1        0.2320
      3 O           2.1093   -2.0031   -0.5509 O.2     1  UNL1       -0.4696
      4 C           0.6632    1.0705   -0.1277 C.2     1  UNL1       -0.0267
      5 C           0.7169    2.5568   -0.3483 C.3     1  UNL1       -0.3381
      6 H           0.0974    3.0672    0.3923 H       1  UNL1        0.1380
      7 H           1.7203    2.9683   -0.2866 H       1  UNL1        0.1165
      8 H           0.3006    2.8030   -1.3286 H       1  UNL1        0.1416
      9 C          -0.7195    0.5105   -0.1222 C.ar    1  UNL1        0.1075
     10 C          -1.6477    0.9180    0.8347 C.ar    1  UNL1       -0.2140
     11 C          -2.9317    0.3956    0.8428 C.ar    1  UNL1       -0.1451
     12 C          -3.3143   -0.5303   -0.1181 C.ar    1  UNL1       -0.1430
     13 C          -2.4041   -0.9292   -1.0857 C.ar    1  UNL1       -0.1523
     14 C          -1.1173   -0.4114   -1.0875 C.ar    1  UNL1       -0.1941
     15 H          -1.3579    1.6359    1.5929 H       1  UNL1        0.1524
     16 H          -3.6354    0.7120    1.6025 H       1  UNL1        0.1436
     17 H          -4.3181   -0.9356   -0.1141 H       1  UNL1        0.1450
     18 H          -2.6958   -1.6451   -1.8438 H       1  UNL1        0.1432
     19 H          -0.4093   -0.7254   -1.8448 H       1  UNL1        0.1511
     20 C           3.1737    0.7169   -0.0817 C.3     1  UNL1       -0.3434
     21 H           3.6973    0.5027    0.8537 H       1  UNL1        0.1382
     22 H           3.6773    0.1506   -0.8674 H       1  UNL1        0.1378
     23 H           3.2854    1.7751   -0.2991 H       1  UNL1        0.1180
     24 N           0.9779   -1.5850    1.3508 N.am    1  UNL1       -0.4268
     25 H           0.8230   -2.5648    1.5174 H       1  UNL1        0.2762
     26 H           0.5178   -0.9173    1.9425 H       1  UNL1        0.2891
@<TRIPOS>BOND
     1    19    14    1
     2    18    13    1
     3     8     5    1
     4    14    13   ar
     5    14     9   ar
     6    13    12   ar
     7    22    20    1
     8     3     2    2
     9     5     7    1
    10     5     4    1
    11     5     6    1
    12    23    20    1
    13     4     9    1
    14     4     1    2
    15     9    10   ar
    16    12    17    1
    17    12    11   ar
    18    20     1    1
    19    20    21    1
    20     1     2    1
    21     2    24   am
    22    10    11   ar
    23    10    15    1
    24    11    16    1
    25    24    25    1
    26    24    26    1
