@<TRIPOS>MOLECULE
GS-492-0.out
 18 17 0 0 0
SMALL
MULLIKEN_CHARGES
****
Gaussian 16 # wB97XD def2tzvp, opt=(calcfc, maxcycles=70, maxstep=10), freq=norama
@<TRIPOS>ATOM
      1 C           0.4278   -0.6434   -0.0077 C.2     1  UNL1       -0.3554
      2 C          -0.8459    0.0933   -0.0070 C.2     1  UNL1        0.4829
      3 O          -1.0183    1.2919   -0.0182 O.2     1  UNL1       -0.4528
      4 C           1.6617   -0.1232    0.0008 C.2     1  UNL1        0.1131
      5 C           2.8505   -1.0361   -0.0021 C.3     1  UNL1       -0.3408
      6 H           3.4659   -0.8502    0.8819 H       1  UNL1        0.1403
      7 H           2.5662   -2.0870   -0.0181 H       1  UNL1        0.1317
      8 H           3.4793   -0.8270   -0.8713 H       1  UNL1        0.1395
      9 C           1.9982    1.3342    0.0135 C.3     1  UNL1       -0.3557
     10 H           2.6307    1.5505    0.8786 H       1  UNL1        0.1371
     11 H           2.5934    1.5735   -0.8720 H       1  UNL1        0.1386
     12 H           1.1204    1.9699    0.0386 H       1  UNL1        0.1470
     13 H           0.3158   -1.7205   -0.0142 H       1  UNL1        0.1412
     14 O          -1.8705   -0.7736    0.0071 O.3     1  UNL1       -0.2865
     15 C          -3.1799   -0.2093    0.0087 C.3     1  UNL1       -0.1957
     16 H          -3.8650   -1.0522    0.0196 H       1  UNL1        0.1452
     17 H          -3.3310    0.4095    0.8929 H       1  UNL1        0.1351
     18 H          -3.3399    0.3939   -0.8847 H       1  UNL1        0.1352
@<TRIPOS>BOND
     1    18    15    1
     2    11     9    1
     3     8     5    1
     4     3     2    2
     5     7     5    1
     6    13     1    1
     7     1     2    1
     8     1     4    2
     9     2    14    1
    10     5     4    1
    11     5     6    1
    12     4     9    1
    13    14    15    1
    14    15    16    1
    15    15    17    1
    16     9    12    1
    17     9    10    1
