@<TRIPOS>MOLECULE
GS-463-0.out
 26 26 0 0 0
SMALL
MULLIKEN_CHARGES
****
Gaussian 16 # wB97XD def2tzvp, opt=(calcfc, maxcycles=70, maxstep=10), freq=norama
@<TRIPOS>ATOM
      1 C          -2.4187   -0.2251    0.1107 C.2     1  UNL1       -0.0825
      2 C          -0.9957   -0.6914    0.0078 C.2     1  UNL1        0.4075
      3 O          -0.7319   -1.8659   -0.2006 O.2     1  UNL1       -0.4831
      4 C          -2.7780    0.9413   -0.4282 C.2     1  UNL1       -0.1479
      5 C          -4.1430    1.5417   -0.4884 C.3     1  UNL1       -0.3398
      6 H          -4.1321    2.5354   -0.0340 H       1  UNL1        0.1377
      7 H          -4.4461    1.6777   -1.5295 H       1  UNL1        0.1390
      8 H          -4.9014    0.9445    0.0126 H       1  UNL1        0.1187
      9 H          -2.0097    1.5366   -0.9142 H       1  UNL1        0.1551
     10 C          -3.3389   -1.2197    0.7545 C.3     1  UNL1       -0.3403
     11 H          -3.3566   -2.1449    0.1765 H       1  UNL1        0.1364
     12 H          -2.9866   -1.4757    1.7560 H       1  UNL1        0.1367
     13 H          -4.3559   -0.8452    0.8358 H       1  UNL1        0.1185
     14 N          -0.0513    0.2760    0.1784 N.am    1  UNL1       -0.2810
     15 C           1.3458    0.1849    0.0803 C.ar    1  UNL1        0.3115
     16 C           2.0187   -0.9532   -0.3603 C.ar    1  UNL1       -0.2946
     17 C           3.4051   -0.9430   -0.4350 C.ar    1  UNL1       -0.1076
     18 C           4.1351    0.1798   -0.0798 C.ar    1  UNL1       -0.1896
     19 C           3.4612    1.3129    0.3565 C.ar    1  UNL1       -0.0972
     20 C           2.0808    1.3175    0.4368 C.ar    1  UNL1       -0.3039
     21 H          -0.4013    1.1742    0.4666 H       1  UNL1        0.2665
     22 H           1.4612   -1.8329   -0.6361 H       1  UNL1        0.1618
     23 H           3.9163   -1.8337   -0.7787 H       1  UNL1        0.1442
     24 H           5.2154    0.1747   -0.1419 H       1  UNL1        0.1431
     25 H           4.0123    2.2014    0.6373 H       1  UNL1        0.1459
     26 H           1.5639    2.2072    0.7774 H       1  UNL1        0.1446
@<TRIPOS>BOND
     1     7     5    1
     2     9     4    1
     3    23    17    1
     4    22    16    1
     5     5     4    1
     6     5     6    1
     7     5     8    1
     8    17    16   ar
     9    17    18   ar
    10     4     1    2
    11    16    15   ar
    12     3     2    2
    13    24    18    1
    14    18    19   ar
    15     2     1    1
    16     2    14   am
    17    15    14    1
    18    15    20   ar
    19     1    10    1
    20    11    10    1
    21    14    21    1
    22    19    20   ar
    23    19    25    1
    24    20    26    1
    25    10    13    1
    26    10    12    1
