@<TRIPOS>MOLECULE
GS-434-1.out
 24 24 0 0 0
SMALL
MULLIKEN_CHARGES
****
Gaussian 16 # wB97XD def2tzvp, opt=(calcfc, maxcycles=70, maxstep=1), freq=noraman
@<TRIPOS>ATOM
      1 C           1.4479   -0.0919   -0.0465 C.2     1  UNL1       -0.0054
      2 C           1.3405    1.3995   -0.2055 C.2     1  UNL1        0.2065
      3 O           2.1639    2.1207    0.3104 O.2     1  UNL1       -0.3738
      4 C           0.4430   -0.9734    0.0204 C.2     1  UNL1        0.0044
      5 C           0.6326   -2.4540    0.1420 C.3     1  UNL1       -0.3546
      6 H          -0.0956   -2.9699   -0.4854 H       1  UNL1        0.1480
      7 H           1.6338   -2.7740   -0.1320 H       1  UNL1        0.1364
      8 H           0.4362   -2.7618    1.1727 H       1  UNL1        0.1566
      9 C          -0.9701   -0.5161    0.0756 C.ar    1  UNL1        0.2182
     10 C          -1.8764   -0.8922   -0.9139 C.ar    1  UNL1       -0.2129
     11 C          -3.1926   -0.4660   -0.8552 C.ar    1  UNL1       -0.1394
     12 C          -3.6254    0.3192    0.2055 C.ar    1  UNL1       -0.1379
     13 C          -2.7356    0.6749    1.2075 C.ar    1  UNL1       -0.1225
     14 C          -1.4139    0.2597    1.1425 C.ar    1  UNL1       -0.2738
     15 H          -1.5436   -1.4999   -1.7465 H       1  UNL1        0.1579
     16 H          -3.8835   -0.7478   -1.6394 H       1  UNL1        0.1474
     17 H          -4.6558    0.6476    0.2521 H       1  UNL1        0.1488
     18 H          -3.0683    1.2781    2.0424 H       1  UNL1        0.1477
     19 H          -0.7184    0.5388    1.9245 H       1  UNL1        0.1610
     20 CL          3.1062   -0.6227    0.1032 Cl      1  UNL1       -0.1104
     21 C           0.2531    1.9839   -1.0725 C.3     1  UNL1       -0.3690
     22 H           0.6731    2.8480   -1.5854 H       1  UNL1        0.1564
     23 H          -0.1406    1.2722   -1.7937 H       1  UNL1        0.1506
     24 H          -0.5706    2.3284   -0.4463 H       1  UNL1        0.1596
@<TRIPOS>BOND
     1    23    21    1
     2    15    10    1
     3    16    11    1
     4    22    21    1
     5    21    24    1
     6    21     2    1
     7    10    11   ar
     8    10     9   ar
     9    11    12   ar
    10     6     5    1
    11     2     1    1
    12     2     3    2
    13     7     5    1
    14     1     4    2
    15     1    20    1
    16     4     9    1
    17     4     5    1
    18     9    14   ar
    19     5     8    1
    20    12    17    1
    21    12    13   ar
    22    14    13   ar
    23    14    19    1
    24    13    18    1
