@<TRIPOS>MOLECULE
GS-415-1.out
 33 34 0 0 0
SMALL
MULLIKEN_CHARGES
****
Gaussian 16 # wB97XD def2tzvp, opt=(calcfc, maxcycles=70, maxstep=1), freq=noraman
@<TRIPOS>ATOM
      1 C          -1.4891   -2.1565   -0.1421 C.2     1  UNL1       -0.2610
      2 C          -0.0212   -1.9900    0.0442 C.2     1  UNL1        0.3830
      3 O           0.6159   -2.8182    0.6781 O.2     1  UNL1       -0.4808
      4 C          -2.4315   -1.2100   -0.1309 C.2     1  UNL1        0.0788
      5 C          -3.8803   -1.5567   -0.3057 C.3     1  UNL1       -0.3429
      6 H          -4.4490   -1.2487    0.5749 H       1  UNL1        0.1448
      7 H          -4.2993   -1.0155   -1.1572 H       1  UNL1        0.1430
      8 H          -4.0229   -2.6242   -0.4660 H       1  UNL1        0.1337
      9 C          -2.1371    0.2336    0.0847 C.ar    1  UNL1        0.0460
     10 C          -2.4284    1.1688   -0.9063 C.ar    1  UNL1       -0.2078
     11 C          -2.1177    2.5084   -0.7220 C.ar    1  UNL1       -0.1322
     12 C          -1.5312    2.9316    0.4615 C.ar    1  UNL1       -0.1492
     13 C          -1.2566    2.0092    1.4617 C.ar    1  UNL1       -0.1300
     14 C          -1.5566    0.6695    1.2743 C.ar    1  UNL1       -0.1935
     15 H          -2.8786    0.8452   -1.8369 H       1  UNL1        0.1538
     16 H          -2.3336    3.2217   -1.5071 H       1  UNL1        0.1461
     17 H          -1.2896    3.9769    0.6049 H       1  UNL1        0.1469
     18 H          -0.8029    2.3328    2.3897 H       1  UNL1        0.1453
     19 H          -1.3320   -0.0508    2.0514 H       1  UNL1        0.1532
     20 H          -1.7861   -3.1957   -0.2261 H       1  UNL1        0.1472
     21 N           0.5375   -0.9019   -0.5536 N.am    1  UNL1       -0.2396
     22 C           1.8181   -0.3602   -0.3559 C.ar    1  UNL1        0.3106
     23 C           1.9679    1.0100   -0.5710 C.ar    1  UNL1       -0.2936
     24 C           3.2038    1.6109   -0.4123 C.ar    1  UNL1       -0.1185
     25 C           4.3051    0.8563   -0.0302 C.ar    1  UNL1       -0.1817
     26 C           4.1533   -0.5051    0.1834 C.ar    1  UNL1       -0.0921
     27 C           2.9210   -1.1224    0.0197 C.ar    1  UNL1       -0.3189
     28 H          -0.1094   -0.2855   -1.0178 H       1  UNL1        0.2604
     29 H           1.1054    1.6042   -0.8531 H       1  UNL1        0.1662
     30 H           3.3039    2.6755   -0.5816 H       1  UNL1        0.1435
     31 H           5.2715    1.3260    0.0981 H       1  UNL1        0.1428
     32 H           5.0060   -1.1045    0.4770 H       1  UNL1        0.1445
     33 H           2.8106   -2.1826    0.1823 H       1  UNL1        0.1522
@<TRIPOS>BOND
     1    15    10    1
     2    16    11    1
     3     7     5    1
     4    28    21    1
     5    10    11   ar
     6    10     9   ar
     7    29    23    1
     8    11    12   ar
     9    30    24    1
    10    23    24   ar
    11    23    22   ar
    12    21    22    1
    13    21     2   am
    14     8     5    1
    15    24    25   ar
    16    22    27   ar
    17     5     4    1
    18     5     6    1
    19    20     1    1
    20     1     4    2
    21     1     2    1
    22     4     9    1
    23    25    31    1
    24    25    26   ar
    25    27    33    1
    26    27    26   ar
    27     2     3    2
    28     9    14   ar
    29    26    32    1
    30    12    17    1
    31    12    13   ar
    32    14    13   ar
    33    14    19    1
    34    13    18    1
