@<TRIPOS>MOLECULE
GS-480-0.out
 21 21 0 0 0
SMALL
MULLIKEN_CHARGES
****
Gaussian 16 # wB97XD def2tzvp, opt=(calcfc, maxcycles=70, maxstep=10), freq=norama
@<TRIPOS>ATOM
      1 C           1.5707    0.1853   -0.0609 C.2     1  UNL1       -0.0687
      2 C           0.3404    1.0422   -0.0194 C.2     1  UNL1        0.3041
      3 O           0.4566    2.2491   -0.0207 O.2     1  UNL1       -0.3780
      4 C           2.6610    0.5186    0.6205 C.2     1  UNL1       -0.0858
      5 C           3.9534   -0.2085    0.6965 C.3     1  UNL1       -0.3348
      6 H           4.7563    0.4338    0.3265 H       1  UNL1        0.1483
      7 H           4.1895   -0.4383    1.7376 H       1  UNL1        0.1478
      8 H           3.9486   -1.1315    0.1211 H       1  UNL1        0.1303
      9 H           2.5801    1.4365    1.1938 H       1  UNL1        0.1674
     10 CL          1.4966   -1.2366   -1.0689 Cl      1  UNL1       -0.1001
     11 C          -1.0018    0.4010    0.0596 C.ar    1  UNL1        0.1258
     12 C          -2.0932    1.0623   -0.4980 C.ar    1  UNL1       -0.2059
     13 C          -3.3627    0.5209   -0.3922 C.ar    1  UNL1       -0.1305
     14 C          -3.5523   -0.6721    0.2931 C.ar    1  UNL1       -0.1304
     15 C          -2.4705   -1.3260    0.8662 C.ar    1  UNL1       -0.1378
     16 C          -1.1960   -0.7980    0.7407 C.ar    1  UNL1       -0.2268
     17 H          -1.9357    1.9979   -1.0189 H       1  UNL1        0.1500
     18 H          -4.2062    1.0300   -0.8401 H       1  UNL1        0.1500
     19 H          -4.5461   -1.0923    0.3819 H       1  UNL1        0.1518
     20 H          -2.6194   -2.2502    1.4092 H       1  UNL1        0.1506
     21 H          -0.3554   -1.3113    1.1899 H       1  UNL1        0.1727
@<TRIPOS>BOND
     1    10     1    1
     2    17    12    1
     3    18    13    1
     4    12    13   ar
     5    12    11   ar
     6    13    14   ar
     7     1     2    1
     8     1     4    2
     9     3     2    2
    10     2    11    1
    11    11    16   ar
    12     8     5    1
    13    14    19    1
    14    14    15   ar
    15     6     5    1
    16     4     5    1
    17     4     9    1
    18     5     7    1
    19    16    15   ar
    20    16    21    1
    21    15    20    1
