@<TRIPOS>MOLECULE
GS-427-0.out
 23 23 0 0 0
SMALL
MULLIKEN_CHARGES
****
Gaussian 16 # wB97XD def2tzvp, opt=(calcfc, maxcycles=70, maxstep=10), freq=norama
@<TRIPOS>ATOM
      1 C          -0.9212    0.0473    0.0392 C.2     1  UNL1       -0.0255
      2 C          -0.6468    1.5170    0.2388 C.2     1  UNL1        0.2403
      3 O          -1.0140    2.3508   -0.5721 O.2     1  UNL1       -0.4455
      4 C           0.0045   -0.8984   -0.1114 C.2     1  UNL1        0.0025
      5 C          -0.2759   -2.3545   -0.3198 C.3     1  UNL1       -0.3374
      6 H           0.2583   -2.9448    0.4272 H       1  UNL1        0.1461
      7 H          -1.3345   -2.5913   -0.2596 H       1  UNL1        0.1357
      8 H           0.1020   -2.6620   -1.2976 H       1  UNL1        0.1499
      9 C           1.4463   -0.5176   -0.1190 C.ar    1  UNL1        0.1228
     10 C           2.3212   -1.0593    0.8206 C.ar    1  UNL1       -0.2131
     11 C           3.6610   -0.7061    0.8171 C.ar    1  UNL1       -0.1429
     12 C           4.1467    0.1796   -0.1352 C.ar    1  UNL1       -0.1392
     13 C           3.2851    0.7103   -1.0834 C.ar    1  UNL1       -0.1474
     14 C           1.9423    0.3638   -1.0757 C.ar    1  UNL1       -0.1904
     15 H           1.9498   -1.7466    1.5709 H       1  UNL1        0.1556
     16 H           4.3278   -1.1235    1.5608 H       1  UNL1        0.1464
     17 H           5.1944    0.4521   -0.1391 H       1  UNL1        0.1474
     18 H           3.6578    1.3958   -1.8338 H       1  UNL1        0.1462
     19 H           1.2718    0.7777   -1.8184 H       1  UNL1        0.1572
     20 BR         -2.7884   -0.3060   -0.0365 Br      1  UNL1       -0.0713
     21 N          -0.0094    1.8233    1.3790 N.am    1  UNL1       -0.4185
     22 H           0.2544    2.7782    1.5537 H       1  UNL1        0.2841
     23 H           0.3086    1.1102    2.0101 H       1  UNL1        0.2970
@<TRIPOS>BOND
     1    18    13    1
     2    19    14    1
     3     8     5    1
     4    13    14   ar
     5    13    12   ar
     6    14     9   ar
     7     3     2    2
     8     5     7    1
     9     5     4    1
    10     5     6    1
    11    17    12    1
    12    12    11   ar
    13     9     4    1
    14     9    10   ar
    15     4     1    2
    16    20     1    1
    17     1     2    1
    18     2    21   am
    19    11    10   ar
    20    11    16    1
    21    10    15    1
    22    21    22    1
    23    21    23    1
