@<TRIPOS>MOLECULE
GS-450-0.out
 14 13 0 0 0
SMALL
MULLIKEN_CHARGES
****
Gaussian 16 # wB97XD def2tzvp, opt=(calcfc, maxcycles=70, maxstep=10), freq=norama
@<TRIPOS>ATOM
      1 C           0.2903   -0.5639   -0.0000 C.2     1  UNL1       -0.2527
      2 C          -1.1395   -0.2034    0.0000 C.2     1  UNL1        0.2954
      3 O          -1.9824   -1.0834    0.0000 O.2     1  UNL1       -0.4195
      4 C           1.2942    0.3113    0.0000 C.2     1  UNL1       -0.0579
      5 C           2.7378   -0.0500   -0.0000 C.3     1  UNL1       -0.3399
      6 H           3.2329    0.3764    0.8759 H       1  UNL1        0.1424
      7 H           2.8871   -1.1292   -0.0000 H       1  UNL1        0.1320
      8 H           3.2329    0.3764   -0.8759 H       1  UNL1        0.1424
      9 H           1.0727    1.3746    0.0000 H       1  UNL1        0.1610
     10 H           0.4884   -1.6314   -0.0000 H       1  UNL1        0.1378
     11 C          -1.5406    1.2497   -0.0000 C.3     1  UNL1       -0.3861
     12 H          -1.1415    1.7571    0.8798 H       1  UNL1        0.1541
     13 H          -1.1415    1.7571   -0.8798 H       1  UNL1        0.1541
     14 H          -2.6253    1.3240    0.0000 H       1  UNL1        0.1370
@<TRIPOS>BOND
     1    13    11    1
     2     8     5    1
     3     7     5    1
     4    10     1    1
     5     1     2    1
     6     1     4    2
     7     2     3    2
     8     2    11    1
     9     4     5    1
    10     4     9    1
    11     5     6    1
    12    11    14    1
    13    11    12    1
