@<TRIPOS>MOLECULE
GS-486-1.out
 32 32 0 0 0
SMALL
MULLIKEN_CHARGES
****
Gaussian 16 # wB97XD def2tzvp, opt=(calcfc, maxcycles=70, maxstep=1), freq=noraman
@<TRIPOS>ATOM
      1 C          -0.3810    0.6066   -0.2553 C.2     1  UNL1       -0.0700
      2 C          -1.3798   -0.4831   -0.5582 C.2     1  UNL1        0.2179
      3 O          -1.7424   -0.6803   -1.7165 O.2     1  UNL1       -0.4954
      4 C          -0.7764    1.8782   -0.1480 C.2     1  UNL1        0.0567
      5 C           0.1643    3.0369    0.0123 C.3     1  UNL1       -0.3984
      6 H          -0.1298    3.8425   -0.6650 H       1  UNL1        0.1367
      7 H           0.1043    3.4410    1.0268 H       1  UNL1        0.1457
      8 H           1.2004    2.7749   -0.1896 H       1  UNL1        0.1468
      9 C          -2.2257    2.2697   -0.1848 C.3     1  UNL1       -0.3716
     10 H          -2.4675    2.8738    0.6939 H       1  UNL1        0.1345
     11 H          -2.4278    2.8923   -1.0604 H       1  UNL1        0.1415
     12 H          -2.9013    1.4163   -0.2089 H       1  UNL1        0.1367
     13 C           1.0221    0.1253   -0.1591 C.ar    1  UNL1        0.1813
     14 C           1.8304    0.4668    0.9248 C.ar    1  UNL1       -0.2790
     15 C           3.1304   -0.0059    1.0194 C.ar    1  UNL1       -0.1277
     16 C           3.6433   -0.8381    0.0351 C.ar    1  UNL1       -0.1399
     17 C           2.8441   -1.1983   -1.0409 C.ar    1  UNL1       -0.1577
     18 C           1.5445   -0.7253   -1.1343 C.ar    1  UNL1       -0.2327
     19 H           1.4324    1.1028    1.7057 H       1  UNL1        0.1686
     20 H           3.7414    0.2720    1.8691 H       1  UNL1        0.1423
     21 H           4.6577   -1.2090    0.1090 H       1  UNL1        0.1444
     22 H           3.2340   -1.8506   -1.8122 H       1  UNL1        0.1420
     23 H           0.9258   -1.0112   -1.9763 H       1  UNL1        0.1436
     24 N          -1.8032   -1.2389    0.4754 N.am    1  UNL1       -0.0816
     25 C          -2.6801   -2.3689    0.2472 C.3     1  UNL1       -0.2820
     26 C          -1.4208   -1.0219    1.8554 C.3     1  UNL1       -0.2821
     27 H          -2.8255   -2.5043   -0.8195 H       1  UNL1        0.1492
     28 H          -2.2360   -3.2721    0.6717 H       1  UNL1        0.1380
     29 H          -3.6479   -2.2014    0.7259 H       1  UNL1        0.1418
     30 H          -0.9060   -0.0730    1.9668 H       1  UNL1        0.1622
     31 H          -2.3151   -1.0057    2.4816 H       1  UNL1        0.1438
     32 H          -0.7682   -1.8260    2.2054 H       1  UNL1        0.1445
@<TRIPOS>BOND
     1    23    18    1
     2    22    17    1
     3     3     2    2
     4    18    17   ar
     5    18    13   ar
     6    11     9    1
     7    17    16   ar
     8    27    25    1
     9     6     5    1
    10     2     1    1
    11     2    24   am
    12     1    13    1
    13     1     4    2
    14    12     9    1
    15     8     5    1
    16     9     4    1
    17     9    10    1
    18    13    14   ar
    19     4     5    1
    20     5     7    1
    21    16    21    1
    22    16    15   ar
    23    25    24    1
    24    25    28    1
    25    25    29    1
    26    24    26    1
    27    14    15   ar
    28    14    19    1
    29    15    20    1
    30    26    30    1
    31    26    32    1
    32    26    31    1
