@<TRIPOS>MOLECULE
GS-496-0.out
 24 24 0 0 0
SMALL
MULLIKEN_CHARGES
****
Gaussian 16 # wB97XD def2tzvp, opt=(calcfc, maxcycles=70, maxstep=10), freq=norama
@<TRIPOS>ATOM
      1 C          -1.4409    0.3780   -0.3669 C.2     1  UNL1       -0.3704
      2 C          -0.4144   -0.6467   -0.1165 C.2     1  UNL1        0.3501
      3 O          -0.6723   -1.8330    0.0140 O.2     1  UNL1       -0.4346
      4 C          -2.7422    0.2896   -0.0524 C.2     1  UNL1        0.1208
      5 C          -3.6730    1.4129   -0.3915 C.3     1  UNL1       -0.3517
      6 H          -4.5203    1.0318   -0.9678 H       1  UNL1        0.1405
      7 H          -4.0869    1.8443    0.5237 H       1  UNL1        0.1456
      8 H          -3.1829    2.2006   -0.9616 H       1  UNL1        0.1308
      9 C          -3.3850   -0.8668    0.6470 C.3     1  UNL1       -0.3567
     10 H          -4.1594   -0.5060    1.3263 H       1  UNL1        0.1321
     11 H          -3.8796   -1.5053   -0.0910 H       1  UNL1        0.1486
     12 H          -2.6718   -1.4820    1.1874 H       1  UNL1        0.1408
     13 H          -1.0954    1.2885   -0.8416 H       1  UNL1        0.1659
     14 C           1.0128   -0.1896   -0.0513 C.ar    1  UNL1        0.1347
     15 C           2.0238   -1.1178   -0.2933 C.ar    1  UNL1       -0.2092
     16 C           3.3539   -0.7420   -0.2225 C.ar    1  UNL1       -0.1256
     17 C           3.6890    0.5650    0.1083 C.ar    1  UNL1       -0.1362
     18 C           2.6899    1.4930    0.3628 C.ar    1  UNL1       -0.1363
     19 C           1.3572    1.1201    0.2755 C.ar    1  UNL1       -0.2420
     20 H           1.7519   -2.1352   -0.5423 H       1  UNL1        0.1460
     21 H           4.1320   -1.4673   -0.4235 H       1  UNL1        0.1474
     22 H           4.7292    0.8591    0.1684 H       1  UNL1        0.1496
     23 H           2.9479    2.5098    0.6295 H       1  UNL1        0.1481
     24 H           0.5870    1.8511    0.4850 H       1  UNL1        0.1618
@<TRIPOS>BOND
     1     6     5    1
     2     8     5    1
     3    13     1    1
     4    20    15    1
     5    21    16    1
     6     5     4    1
     7     5     7    1
     8     1     2    1
     9     1     4    2
    10    15    16   ar
    11    15    14   ar
    12    16    17   ar
    13     2    14    1
    14     2     3    2
    15    11     9    1
    16     4     9    1
    17    14    19   ar
    18    17    22    1
    19    17    18   ar
    20    19    18   ar
    21    19    24    1
    22    18    23    1
    23     9    12    1
    24     9    10    1
