@<TRIPOS>MOLECULE
GS-497-1.out
 17 16 0 0 0
SMALL
MULLIKEN_CHARGES
****
Gaussian 16 # wB97XD def2tzvp, opt=(calcfc, maxcycles=70, maxstep=1), freq=noraman
@<TRIPOS>ATOM
      1 C           0.3237    0.2286    0.0042 C.2     1  UNL1       -0.0542
      2 C           1.4066   -0.7549   -0.0081 C.2     1  UNL1        0.1664
      3 O           2.5903   -0.4742   -0.0078 O.2     1  UNL1       -0.4194
      4 C          -0.9701   -0.1573   -0.0082 C.2     1  UNL1        0.0974
      5 C          -2.0638    0.8716   -0.0203 C.3     1  UNL1       -0.3962
      6 H          -2.9951    0.4486   -0.3962 H       1  UNL1        0.1426
      7 H          -2.2509    1.2208    1.0002 H       1  UNL1        0.1622
      8 H          -1.8052    1.7436   -0.6196 H       1  UNL1        0.1450
      9 C          -1.4793   -1.5673    0.0156 C.3     1  UNL1       -0.3488
     10 H          -2.2082   -1.6649    0.8242 H       1  UNL1        0.1475
     11 H          -2.0189   -1.7710   -0.9131 H       1  UNL1        0.1501
     12 H          -0.7232   -2.3341    0.1481 H       1  UNL1        0.1173
     13 C           0.7266    1.6793    0.0163 C.3     1  UNL1       -0.4156
     14 H           0.5129    2.1617   -0.9409 H       1  UNL1        0.1445
     15 H           0.1952    2.2360    0.7893 H       1  UNL1        0.1409
     16 H           1.7953    1.7675    0.2013 H       1  UNL1        0.1370
     17 H           1.1137   -1.8150   -0.0284 H       1  UNL1        0.0833
@<TRIPOS>BOND
     1    14    13    1
     2    11     9    1
     3     8     5    1
     4     6     5    1
     5    17     2    1
     6     5     4    1
     7     5     7    1
     8     4     1    2
     9     4     9    1
    10     2     3    2
    11     2     1    1
    12     1    13    1
    13     9    12    1
    14     9    10    1
    15    13    16    1
    16    13    15    1
