@<TRIPOS>MOLECULE
GS-417-0.out
 24 24 0 0 0
SMALL
MULLIKEN_CHARGES
****
Gaussian 16 # wB97XD def2tzvp, opt=(calcfc, maxcycles=70, maxstep=10), freq=norama
@<TRIPOS>ATOM
      1 C          -1.8173    0.0375   -0.0148 C.2     1  UNL1       -0.0651
      2 C          -1.6336   -1.3678   -0.4033 C.2     1  UNL1        0.1515
      3 O          -2.5368   -2.1730   -0.5076 O.2     1  UNL1       -0.4054
      4 C          -0.7399    0.8357    0.1257 C.2     1  UNL1        0.0988
      5 C          -0.8593    2.3027    0.4075 C.3     1  UNL1       -0.3654
      6 H          -0.2020    2.8666   -0.2574 H       1  UNL1        0.1465
      7 H          -1.8738    2.6761    0.2958 H       1  UNL1        0.1432
      8 H          -0.5200    2.5078    1.4269 H       1  UNL1        0.1532
      9 C           0.6608    0.3362    0.0644 C.ar    1  UNL1        0.1601
     10 C           1.5336    0.8029   -0.9174 C.ar    1  UNL1       -0.2153
     11 C           2.8455    0.3596   -0.9625 C.ar    1  UNL1       -0.1488
     12 C           3.3115   -0.5401   -0.0132 C.ar    1  UNL1       -0.1451
     13 C           2.4563   -0.9962    0.9783 C.ar    1  UNL1       -0.1141
     14 C           1.1395   -0.5614    1.0162 C.ar    1  UNL1       -0.2749
     15 H           1.1784    1.5038   -1.6633 H       1  UNL1        0.1554
     16 H           3.5066    0.7183   -1.7411 H       1  UNL1        0.1457
     17 H           4.3382   -0.8816   -0.0458 H       1  UNL1        0.1474
     18 H           2.8126   -1.6934    1.7260 H       1  UNL1        0.1465
     19 H           0.4740   -0.9165    1.7935 H       1  UNL1        0.1564
     20 C          -3.2328    0.5184    0.1509 C.3     1  UNL1       -0.4275
     21 H          -3.9115   -0.3324    0.1490 H       1  UNL1        0.1397
     22 H          -3.3650    1.0625    1.0862 H       1  UNL1        0.1485
     23 H          -3.5270    1.1824   -0.6650 H       1  UNL1        0.1471
     24 H          -0.6015   -1.6740   -0.6350 H       1  UNL1        0.1219
@<TRIPOS>BOND
     1    16    11    1
     2    15    10    1
     3    11    10   ar
     4    11    12   ar
     5    10     9   ar
     6    23    20    1
     7    24     2    1
     8     3     2    2
     9     2     1    1
    10     6     5    1
    11    17    12    1
    12     1     4    2
    13     1    20    1
    14    12    13   ar
    15     9     4    1
    16     9    14   ar
    17     4     5    1
    18    21    20    1
    19    20    22    1
    20     7     5    1
    21     5     8    1
    22    13    14   ar
    23    13    18    1
    24    14    19    1
