@<TRIPOS>MOLECULE
GS-420-0.out
 28 28 0 0 0
SMALL
MULLIKEN_CHARGES
****
Gaussian 16 # wB97XD def2tzvp, opt=(calcfc, maxcycles=70, maxstep=10), freq=norama
@<TRIPOS>ATOM
      1 C          -1.6544    0.6648    0.0154 C.2     1  UNL1        0.0092
      2 C          -1.6175   -0.8297    0.0854 C.2     1  UNL1        0.3241
      3 O          -2.1997   -1.4739    0.9268 O.2     1  UNL1       -0.4222
      4 C          -0.5219    1.3774   -0.0187 C.2     1  UNL1       -0.0148
      5 C          -0.4685    2.8773   -0.0871 C.3     1  UNL1       -0.3328
      6 H           0.1772    3.1889   -0.9108 H       1  UNL1        0.1395
      7 H          -1.4406    3.3402   -0.2304 H       1  UNL1        0.1181
      8 H          -0.0237    3.2765    0.8279 H       1  UNL1        0.1430
      9 C           0.8140    0.7235    0.0766 C.ar    1  UNL1        0.2031
     10 C           1.7703    0.9037   -0.9211 C.ar    1  UNL1       -0.2392
     11 C           3.0085    0.2881   -0.8325 C.ar    1  UNL1       -0.1553
     12 C           3.3190   -0.5037    0.2652 C.ar    1  UNL1       -0.1405
     13 C           2.3825   -0.6727    1.2737 C.ar    1  UNL1       -0.1503
     14 C           1.1408   -0.0610    1.1802 C.ar    1  UNL1       -0.2330
     15 H           1.5369    1.5111   -1.7871 H       1  UNL1        0.1506
     16 H           3.7338    0.4252   -1.6247 H       1  UNL1        0.1428
     17 H           4.2877   -0.9819    0.3349 H       1  UNL1        0.1447
     18 H           2.6181   -1.2799    2.1387 H       1  UNL1        0.1433
     19 H           0.4154   -0.1910    1.9743 H       1  UNL1        0.1556
     20 C          -3.0543    1.2093    0.0595 C.3     1  UNL1       -0.3466
     21 H          -3.5702    0.8265    0.9418 H       1  UNL1        0.1403
     22 H          -3.0813    2.2941    0.0951 H       1  UNL1        0.1203
     23 H          -3.6241    0.8815   -0.8137 H       1  UNL1        0.1402
     24 O          -0.9217   -1.3849   -0.9035 O.3     1  UNL1       -0.2680
     25 C          -0.7682   -2.8040   -0.8569 C.3     1  UNL1       -0.2010
     26 H          -1.7384   -3.2979   -0.8916 H       1  UNL1        0.1409
     27 H          -0.1795   -3.0652   -1.7313 H       1  UNL1        0.1476
     28 H          -0.2428   -3.0954    0.0526 H       1  UNL1        0.1404
@<TRIPOS>BOND
     1    15    10    1
     2    27    25    1
     3    16    11    1
     4    10    11   ar
     5    10     9   ar
     6     6     5    1
     7    24    25    1
     8    24     2    1
     9    26    25    1
    10    25    28    1
    11    11    12   ar
    12    23    20    1
    13     7     5    1
    14     5     4    1
    15     5     8    1
    16     4     1    2
    17     4     9    1
    18     1    20    1
    19     1     2    1
    20    20    22    1
    21    20    21    1
    22     9    14   ar
    23     2     3    2
    24    12    17    1
    25    12    13   ar
    26    14    13   ar
    27    14    19    1
    28    13    18    1
