@<TRIPOS>MOLECULE
GS-46-0.out
 36 37 0 0 0
SMALL
MULLIKEN_CHARGES
****
Gaussian 16 # wB97XD def2tzvp, opt=(calcfc, maxcycles=70, maxstep=10), freq=norama
@<TRIPOS>ATOM
      1 C           0.5733   -0.6277   -0.2989 C.2     1  UNL1        0.0315
      2 C           1.9073   -1.2821   -0.5703 C.2     1  UNL1        0.2171
      3 O           2.1277   -1.7910   -1.6665 O.2     1  UNL1       -0.4903
      4 C          -0.5106   -1.4062   -0.2869 C.2     1  UNL1       -0.1925
      5 C          -1.9228   -1.0004   -0.1786 C.ar    1  UNL1        0.1902
      6 C          -2.4323    0.1119   -0.8497 C.ar    1  UNL1       -0.2353
      7 C          -3.7709    0.4501   -0.7398 C.ar    1  UNL1       -0.1388
      8 C          -4.6251   -0.3167    0.0417 C.ar    1  UNL1       -0.1466
      9 C          -4.1338   -1.4347    0.7002 C.ar    1  UNL1       -0.1402
     10 C          -2.7960   -1.7784    0.5814 C.ar    1  UNL1       -0.2469
     11 H          -1.7757    0.7114   -1.4666 H       1  UNL1        0.1653
     12 H          -4.1506    1.3141   -1.2706 H       1  UNL1        0.1430
     13 H          -5.6706   -0.0493    0.1283 H       1  UNL1        0.1454
     14 H          -4.7943   -2.0446    1.3034 H       1  UNL1        0.1434
     15 H          -2.4184   -2.6576    1.0902 H       1  UNL1        0.1409
     16 H          -0.3486   -2.4775   -0.3667 H       1  UNL1        0.1606
     17 C           0.6019    0.8452   -0.1182 C.ar    1  UNL1        0.1500
     18 C          -0.0838    1.4613    0.9275 C.ar    1  UNL1       -0.2317
     19 C          -0.0347    2.8353    1.0903 C.ar    1  UNL1       -0.1420
     20 C           0.7055    3.6166    0.2128 C.ar    1  UNL1       -0.1290
     21 C           1.4038    3.0123   -0.8220 C.ar    1  UNL1       -0.1651
     22 C           1.3575    1.6355   -0.9817 C.ar    1  UNL1       -0.2012
     23 H          -0.6566    0.8560    1.6188 H       1  UNL1        0.1651
     24 H          -0.5716    3.2981    1.9087 H       1  UNL1        0.1431
     25 H           0.7437    4.6909    0.3407 H       1  UNL1        0.1458
     26 H           1.9884    3.6129   -1.5073 H       1  UNL1        0.1436
     27 H           1.9059    1.1697   -1.7922 H       1  UNL1        0.1457
     28 N           2.8273   -1.2368    0.4127 N.am    1  UNL1       -0.0825
     29 C           4.1783   -1.6993    0.1682 C.3     1  UNL1       -0.2871
     30 C           2.5607   -0.7633    1.7565 C.3     1  UNL1       -0.2972
     31 H           4.3277   -1.8354   -0.8983 H       1  UNL1        0.1478
     32 H           4.8869   -0.9590    0.5440 H       1  UNL1        0.1412
     33 H           4.3620   -2.6474    0.6799 H       1  UNL1        0.1445
     34 H           1.4932   -0.7368    1.9533 H       1  UNL1        0.1638
     35 H           3.0193   -1.4495    2.4701 H       1  UNL1        0.1519
     36 H           2.9787    0.2342    1.9136 H       1  UNL1        0.1467
@<TRIPOS>BOND
     1    27    22    1
     2     3     2    2
     3    26    21    1
     4    11     6    1
     5    12     7    1
     6    22    21   ar
     7    22    17   ar
     8    31    29    1
     9     6     7   ar
    10     6     5   ar
    11    21    20   ar
    12     7     8   ar
    13     2     1    1
    14     2    28   am
    15    16     4    1
    16     1     4    2
    17     1    17    1
    18     4     5    1
    19     5    10   ar
    20    17    18   ar
    21     8    13    1
    22     8     9   ar
    23    29    28    1
    24    29    32    1
    25    29    33    1
    26    20    25    1
    27    20    19   ar
    28    28    30    1
    29    10     9   ar
    30    10    15    1
    31     9    14    1
    32    18    19   ar
    33    18    23    1
    34    19    24    1
    35    30    36    1
    36    30    34    1
    37    30    35    1
