@<TRIPOS>MOLECULE
GS-530-0.out
 14 13 0 0 0
SMALL
MULLIKEN_CHARGES
****
Gaussian 16 # wB97XD def2tzvp, opt=(calcfc, maxcycles=70, maxstep=10), freq=norama
@<TRIPOS>ATOM
      1 C           0.9606    1.0334    0.0063 C.2     1  UNL1       -0.2974
      2 C           2.0644    0.0441   -0.0003 C.2     1  UNL1        0.3129
      3 O           3.1987    0.4863   -0.0300 O.2     1  UNL1       -0.4060
      4 C          -0.3690    0.9422    0.0060 C.2     1  UNL1        0.1096
      5 C          -1.2685    2.1342    0.0137 C.3     1  UNL1       -0.3362
      6 H          -0.6837    3.0526    0.0197 H       1  UNL1        0.1439
      7 H          -1.9144    2.1282   -0.8658 H       1  UNL1        0.1544
      8 H          -1.9135    2.1164    0.8938 H       1  UNL1        0.1545
      9 BR         -1.3439   -0.6891   -0.0077 Br      1  UNL1       -0.0559
     10 H           1.3462    2.0482    0.0082 H       1  UNL1        0.1492
     11 C           1.8304   -1.4378    0.0316 C.3     1  UNL1       -0.3746
     12 H           1.2350   -1.7178    0.9011 H       1  UNL1        0.1534
     13 H           2.7937   -1.9416    0.0622 H       1  UNL1        0.1376
     14 H           1.2765   -1.7558   -0.8528 H       1  UNL1        0.1545
@<TRIPOS>BOND
     1     7     5    1
     2    14    11    1
     3     3     2    2
     4     9     4    1
     5     2     1    1
     6     2    11    1
     7     4     1    2
     8     4     5    1
     9     1    10    1
    10     5     6    1
    11     5     8    1
    12    11    13    1
    13    11    12    1
