@<TRIPOS>MOLECULE
GS-502-1.out
 25 24 0 0 0
SMALL
MULLIKEN_CHARGES
****
Gaussian 16 # wB97XD def2tzvp, opt=(calcfc, maxcycles=70, maxstep=1), freq=noraman
@<TRIPOS>ATOM
      1 C          -0.7185    0.6069    0.0151 C.2     1  UNL1       -0.1032
      2 C           0.6909    0.4626   -0.4984 C.2     1  UNL1        0.2830
      3 O           0.9911    0.9557   -1.5850 O.2     1  UNL1       -0.5070
      4 C          -1.6071   -0.3724   -0.1591 C.2     1  UNL1       -0.0014
      5 C          -3.0517   -0.2894    0.2420 C.3     1  UNL1       -0.3515
      6 H          -3.2860   -1.0855    0.9544 H       1  UNL1        0.1313
      7 H          -3.3299    0.6594    0.6930 H       1  UNL1        0.1143
      8 H          -3.6915   -0.4516   -0.6298 H       1  UNL1        0.1325
      9 C          -1.2360   -1.6926   -0.7772 C.3     1  UNL1       -0.3701
     10 H          -1.4188   -2.5041   -0.0668 H       1  UNL1        0.1328
     11 H          -1.8630   -1.8915   -1.6504 H       1  UNL1        0.1378
     12 H          -0.1942   -1.7452   -1.0898 H       1  UNL1        0.1350
     13 C          -0.9622    1.9566    0.6299 C.3     1  UNL1       -0.3311
     14 H          -0.7093    2.7469   -0.0806 H       1  UNL1        0.1380
     15 H          -1.9927    2.0996    0.9440 H       1  UNL1        0.1177
     16 H          -0.3207    2.0969    1.5051 H       1  UNL1        0.1367
     17 N           1.5909   -0.1690    0.2843 N.am    1  UNL1       -0.1096
     18 C           2.9602   -0.3326   -0.1581 C.3     1  UNL1       -0.2753
     19 C           1.2857   -0.7584    1.5714 C.3     1  UNL1       -0.2882
     20 H           3.0807    0.1242   -1.1349 H       1  UNL1        0.1480
     21 H           3.6435    0.1402    0.5511 H       1  UNL1        0.1394
     22 H           3.2084   -1.3950   -0.2209 H       1  UNL1        0.1361
     23 H           0.2693   -0.5220    1.8692 H       1  UNL1        0.1669
     24 H           1.3949   -1.8454    1.5275 H       1  UNL1        0.1432
     25 H           1.9758   -0.3734    2.3253 H       1  UNL1        0.1445
@<TRIPOS>BOND
     1    11     9    1
     2     3     2    2
     3    20    18    1
     4    12     9    1
     5     9     4    1
     6     9    10    1
     7     8     5    1
     8     2     1    1
     9     2    17   am
    10    22    18    1
    11     4     1    2
    12     4     5    1
    13    18    17    1
    14    18    21    1
    15    14    13    1
    16     1    13    1
    17     5     7    1
    18     5     6    1
    19    17    19    1
    20    13    15    1
    21    13    16    1
    22    24    19    1
    23    19    23    1
    24    19    25    1
