@<TRIPOS>MOLECULE
GS-575-1.out
 23 23 0 0 0
SMALL
MULLIKEN_CHARGES
****
Gaussian 16 # wB97XD def2tzvp, opt=(calcfc, maxcycles=70, maxstep=1), freq=noraman
@<TRIPOS>ATOM
      1 C          -2.1312    1.0070    0.4433 C.2     1  UNL1       -0.3087
      2 C          -0.6820    1.1967    0.1500 C.2     1  UNL1        0.4583
      3 O          -0.2922    2.2805   -0.2545 O.2     1  UNL1       -0.4758
      4 C          -2.9479    0.0111    0.1204 C.2     1  UNL1        0.0858
      5 C          -4.4126   -0.0110    0.3972 C.3     1  UNL1       -0.3351
      6 H          -4.6679   -0.8768    1.0103 H       1  UNL1        0.1508
      7 H          -4.7130    0.8958    0.9192 H       1  UNL1        0.1437
      8 H          -4.9737   -0.0887   -0.5355 H       1  UNL1        0.1508
      9 CL         -2.3873   -1.4157   -0.7208 Cl      1  UNL1       -0.1004
     10 H          -2.5835    1.8743    0.9096 H       1  UNL1        0.1753
     11 N           0.1236    0.1359    0.4044 N.am    1  UNL1       -0.2752
     12 C           1.5085    0.0004    0.2110 C.ar    1  UNL1        0.3080
     13 C           2.3169    0.9988   -0.3283 C.ar    1  UNL1       -0.2932
     14 C           3.6766    0.7658   -0.4845 C.ar    1  UNL1       -0.1073
     15 C           4.2451   -0.4420   -0.1133 C.ar    1  UNL1       -0.1864
     16 C           3.4354   -1.4341    0.4236 C.ar    1  UNL1       -0.0978
     17 C           2.0795   -1.2172    0.5853 C.ar    1  UNL1       -0.3015
     18 H          -0.3361   -0.6839    0.7657 H       1  UNL1        0.2635
     19 H           1.8845    1.9419   -0.6190 H       1  UNL1        0.1636
     20 H           4.2958    1.5482   -0.9050 H       1  UNL1        0.1451
     21 H           5.3065   -0.6106   -0.2398 H       1  UNL1        0.1440
     22 H           3.8602   -2.3848    0.7197 H       1  UNL1        0.1470
     23 H           1.4543   -1.9968    1.0050 H       1  UNL1        0.1455
@<TRIPOS>BOND
     1    20    14    1
     2     9     4    1
     3    19    13    1
     4     8     5    1
     5    14    13   ar
     6    14    15   ar
     7    13    12   ar
     8     3     2    2
     9    21    15    1
    10    15    16   ar
    11     4     5    1
    12     4     1    2
    13     2    11   am
    14     2     1    1
    15    12    11    1
    16    12    17   ar
    17     5     7    1
    18     5     6    1
    19    11    18    1
    20    16    17   ar
    21    16    22    1
    22     1    10    1
    23    17    23    1
