@<TRIPOS>MOLECULE
GS-562-0.out
 24 24 0 0 0
SMALL
MULLIKEN_CHARGES
****
Gaussian 16 # wB97XD def2tzvp, opt=(calcfc, maxcycles=70, maxstep=10), freq=norama
@<TRIPOS>ATOM
      1 C           0.5204    0.0756   -0.0721 C.2     1  UNL1       -0.0296
      2 C           1.0381    1.4866    0.0834 C.2     1  UNL1        0.2077
      3 O           1.2646    2.1730   -0.8846 O.2     1  UNL1       -0.3655
      4 C           1.3389   -0.9628   -0.1923 C.2     1  UNL1        0.0674
      5 C           0.9855   -2.3953   -0.4034 C.3     1  UNL1       -0.3861
      6 H          -0.0840   -2.5096   -0.5666 H       1  UNL1        0.1540
      7 H           1.5192   -2.7861   -1.2709 H       1  UNL1        0.1504
      8 H           1.2753   -2.9936    0.4625 H       1  UNL1        0.1550
      9 CL          3.0718   -0.6845   -0.1139 Cl      1  UNL1       -0.1127
     10 C          -0.9611   -0.0380   -0.0502 C.ar    1  UNL1        0.1641
     11 C          -1.6033   -0.8322    0.8977 C.ar    1  UNL1       -0.2488
     12 C          -2.9869   -0.9134    0.9249 C.ar    1  UNL1       -0.1261
     13 C          -3.7451   -0.1952    0.0115 C.ar    1  UNL1       -0.1324
     14 C          -3.1133    0.6083   -0.9273 C.ar    1  UNL1       -0.1549
     15 C          -1.7300    0.6915   -0.9555 C.ar    1  UNL1       -0.2018
     16 H          -1.0136   -1.3832    1.6194 H       1  UNL1        0.1645
     17 H          -3.4731   -1.5355    1.6655 H       1  UNL1        0.1467
     18 H          -4.8255   -0.2578    0.0338 H       1  UNL1        0.1482
     19 H          -3.6991    1.1727   -1.6416 H       1  UNL1        0.1461
     20 H          -1.2404    1.3193   -1.6895 H       1  UNL1        0.1518
     21 C           1.1838    1.9748    1.4929 C.3     1  UNL1       -0.3554
     22 H           1.9092    1.3481    2.0165 H       1  UNL1        0.1537
     23 H           1.5028    3.0144    1.5109 H       1  UNL1        0.1420
     24 H           0.2302    1.8631    2.0144 H       1  UNL1        0.1615
@<TRIPOS>BOND
     1    20    15    1
     2    19    14    1
     3     7     5    1
     4    15    14   ar
     5    15    10   ar
     6    14    13   ar
     7     3     2    2
     8     6     5    1
     9     5     4    1
    10     5     8    1
    11     4     9    1
    12     4     1    2
    13     1    10    1
    14     1     2    1
    15    10    11   ar
    16    13    18    1
    17    13    12   ar
    18     2    21    1
    19    11    12   ar
    20    11    16    1
    21    12    17    1
    22    21    23    1
    23    21    24    1
    24    21    22    1
