@<TRIPOS>MOLECULE
GS-547-0.out
 13 12 0 0 0
SMALL
MULLIKEN_CHARGES
****
Gaussian 16 # wB97XD def2tzvp, opt=(calcfc, maxcycles=70, maxstep=10), freq=norama
@<TRIPOS>ATOM
      1 C           0.4556    0.0775   -0.0077 C.2     1  UNL1       -0.0667
      2 C           0.2968    1.5757   -0.1149 C.2     1  UNL1        0.3064
      3 O           0.3485    2.1324   -1.1964 O.2     1  UNL1       -0.4374
      4 C          -0.5271   -0.8104    0.0177 C.2     1  UNL1        0.0074
      5 C          -0.4413   -2.2954    0.0657 C.3     1  UNL1       -0.3390
      6 H           0.5944   -2.6257    0.0992 H       1  UNL1        0.1460
      7 H          -0.9224   -2.7263   -0.8136 H       1  UNL1        0.1565
      8 H          -0.9619   -2.6710    0.9477 H       1  UNL1        0.1561
      9 BR         -2.3157   -0.1470   -0.0281 Br      1  UNL1       -0.0561
     10 BR          2.2791   -0.4440    0.0052 Br      1  UNL1       -0.0352
     11 N           0.1386    2.2077    1.0551 N.am    1  UNL1       -0.4279
     12 H           0.0784    1.7031    1.9214 H       1  UNL1        0.3016
     13 H           0.0307    3.2079    1.0674 H       1  UNL1        0.2883
@<TRIPOS>BOND
     1     3     2    2
     2     7     5    1
     3     2     1    1
     4     2    11   am
     5     9     4    1
     6     1    10    1
     7     1     4    2
     8     4     5    1
     9     5     6    1
    10     5     8    1
    11    11    13    1
    12    11    12    1
