@<TRIPOS>MOLECULE
GS-570-0.out
 14 13 0 0 0
SMALL
MULLIKEN_CHARGES
****
Gaussian 16 # wB97XD def2tzvp, opt=(calcfc, maxcycles=70, maxstep=10), freq=norama
@<TRIPOS>ATOM
      1 C           0.3186    0.9294    0.0000 C.2     1  UNL1       -0.3099
      2 C           1.6325    0.2479   -0.0000 C.2     1  UNL1        0.3193
      3 O           2.6248    0.9546   -0.0001 O.2     1  UNL1       -0.4093
      4 C          -0.9390    0.4847    0.0000 C.2     1  UNL1        0.1524
      5 C          -2.1307    1.3824    0.0000 C.3     1  UNL1       -0.3329
      6 H          -1.8242    2.4267    0.0001 H       1  UNL1        0.1436
      7 H          -2.7462    1.1895   -0.8802 H       1  UNL1        0.1528
      8 H          -2.7463    1.1894    0.8802 H       1  UNL1        0.1528
      9 CL         -1.3752   -1.1986   -0.0000 Cl      1  UNL1       -0.0801
     10 H           0.4250    2.0086    0.0001 H       1  UNL1        0.1502
     11 C           1.7665   -1.2475    0.0001 C.3     1  UNL1       -0.3794
     12 H           1.2812   -1.6766    0.8774 H       1  UNL1        0.1526
     13 H           1.2811   -1.6767   -0.8772 H       1  UNL1        0.1526
     14 H           2.8234   -1.5035    0.0001 H       1  UNL1        0.1352
@<TRIPOS>BOND
     1     7     5    1
     2    13    11    1
     3     3     2    2
     4     9     4    1
     5     2     1    1
     6     2    11    1
     7     4     5    1
     8     4     1    2
     9     5     6    1
    10     5     8    1
    11     1    10    1
    12    14    11    1
    13    11    12    1
