@<TRIPOS>MOLECULE
GS-513-0.out
 14 13 0 0 0
SMALL
MULLIKEN_CHARGES
****
Gaussian 16 # wB97XD def2tzvp, opt=(calcfc, maxcycles=70, maxstep=10), freq=norama
@<TRIPOS>ATOM
      1 C          -0.2040   -0.2760    0.0000 C.2     1  UNL1        0.0016
      2 C           0.3511   -1.6392    0.0000 C.2     1  UNL1        0.1397
      3 O           1.5279   -1.9148   -0.0000 O.2     1  UNL1       -0.3744
      4 C           0.4992    0.8693    0.0000 C.2     1  UNL1        0.0514
      5 C          -0.1301    2.2220   -0.0000 C.3     1  UNL1       -0.3632
      6 H           0.2179    2.7758    0.8758 H       1  UNL1        0.1573
      7 H           0.2179    2.7758   -0.8758 H       1  UNL1        0.1573
      8 H          -1.2153    2.1993   -0.0000 H       1  UNL1        0.1324
      9 C           2.0015    0.8688    0.0000 C.3     1  UNL1       -0.3233
     10 H           2.3726    1.8923    0.0002 H       1  UNL1        0.1406
     11 H           2.3945    0.3485    0.8736 H       1  UNL1        0.1472
     12 H           2.3945    0.3488   -0.8738 H       1  UNL1        0.1472
     13 CL         -1.9586   -0.2857   -0.0000 Cl      1  UNL1       -0.1257
     14 H          -0.4145   -2.4352    0.0001 H       1  UNL1        0.1119
@<TRIPOS>BOND
     1     7     5    1
     2    12     9    1
     3     3     2    2
     4     8     5    1
     5     5     4    1
     6     5     6    1
     7    13     1    1
     8     4     1    2
     9     4     9    1
    10     1     2    1
    11     2    14    1
    12     9    10    1
    13     9    11    1
