@<TRIPOS>MOLECULE
GS-566-0.out
 29 29 0 0 0
SMALL
MULLIKEN_CHARGES
****
Gaussian 16 # wB97XD def2tzvp, opt=(calcfc, maxcycles=70, maxstep=10), freq=norama
@<TRIPOS>ATOM
      1 C          -0.2468    0.3844   -0.2418 C.2     1  UNL1       -0.1285
      2 C          -1.0683   -0.8427   -0.5580 C.2     1  UNL1        0.2668
      3 O          -1.2943   -1.1221   -1.7312 O.2     1  UNL1       -0.4860
      4 C          -0.8034    1.5867   -0.1331 C.2     1  UNL1        0.0948
      5 C          -0.1277    2.9068    0.0185 C.3     1  UNL1       -0.3926
      6 H           0.9479    2.8091   -0.1105 H       1  UNL1        0.1558
      7 H          -0.5104    3.6062   -0.7261 H       1  UNL1        0.1504
      8 H          -0.3261    3.3310    1.0047 H       1  UNL1        0.1556
      9 CL         -2.5533    1.7128   -0.1717 Cl      1  UNL1       -0.1123
     10 C           1.2163    0.1455   -0.1393 C.ar    1  UNL1        0.2053
     11 C           1.9371    0.5887    0.9681 C.ar    1  UNL1       -0.2689
     12 C           3.2974    0.3411    1.0699 C.ar    1  UNL1       -0.1286
     13 C           3.9543   -0.3603    0.0698 C.ar    1  UNL1       -0.1337
     14 C           3.2420   -0.8171   -1.0305 C.ar    1  UNL1       -0.1519
     15 C           1.8821   -0.5713   -1.1332 C.ar    1  UNL1       -0.2304
     16 H           1.4273    1.1246    1.7591 H       1  UNL1        0.1752
     17 H           3.8426    0.6925    1.9366 H       1  UNL1        0.1455
     18 H           5.0162   -0.5548    0.1494 H       1  UNL1        0.1470
     19 H           3.7475   -1.3673   -1.8139 H       1  UNL1        0.1449
     20 H           1.3293   -0.9298   -1.9922 H       1  UNL1        0.1491
     21 N          -1.4599   -1.6073    0.4763 N.am    1  UNL1       -0.0857
     22 C          -2.1900   -2.8360    0.2375 C.3     1  UNL1       -0.2807
     23 C          -1.2319   -1.2829    1.8694 C.3     1  UNL1       -0.2844
     24 H          -2.2255   -3.0344   -0.8288 H       1  UNL1        0.1512
     25 H          -1.6915   -3.6633    0.7463 H       1  UNL1        0.1401
     26 H          -3.2082   -2.7523    0.6246 H       1  UNL1        0.1438
     27 H          -0.7543   -0.3134    1.9681 H       1  UNL1        0.1639
     28 H          -2.1851   -1.2550    2.4015 H       1  UNL1        0.1462
     29 H          -0.5966   -2.0402    2.3339 H       1  UNL1        0.1478
@<TRIPOS>BOND
     1    20    15    1
     2    19    14    1
     3     3     2    2
     4    15    14   ar
     5    15    10   ar
     6    14    13   ar
     7    24    22    1
     8     7     5    1
     9     2     1    1
    10     2    21   am
    11     1    10    1
    12     1     4    2
    13     9     4    1
    14    10    11   ar
    15     4     5    1
    16     6     5    1
    17     5     8    1
    18    13    18    1
    19    13    12   ar
    20    22    21    1
    21    22    26    1
    22    22    25    1
    23    21    23    1
    24    11    12   ar
    25    11    16    1
    26    12    17    1
    27    23    27    1
    28    23    29    1
    29    23    28    1
