@<TRIPOS>MOLECULE
GS-531-0.out
 13 12 0 0 0
SMALL
MULLIKEN_CHARGES
****
Gaussian 16 # wB97XD def2tzvp, opt=(calcfc, maxcycles=70, maxstep=10), freq=norama
@<TRIPOS>ATOM
      1 C           0.8790    1.1121    0.1627 C.2     1  UNL1       -0.2424
      2 C           1.9753    0.1120   -0.0092 C.2     1  UNL1        0.3546
      3 O           2.8314    0.2925   -0.8639 O.2     1  UNL1       -0.4721
      4 C          -0.4336    0.9403    0.1130 C.2     1  UNL1        0.0229
      5 C          -1.4420    2.0353    0.2094 C.3     1  UNL1       -0.3329
      6 H          -0.9427    2.9931    0.3520 H       1  UNL1        0.1428
      7 H          -2.0466    2.0820   -0.6977 H       1  UNL1        0.1504
      8 H          -2.1175    1.8594    1.0481 H       1  UNL1        0.1501
      9 BR         -1.2169   -0.7831   -0.1435 Br      1  UNL1       -0.0826
     10 H           1.2370    2.1325    0.2507 H       1  UNL1        0.1785
     11 N           1.9933   -0.9291    0.8370 N.am    1  UNL1       -0.4472
     12 H           1.2767   -1.0615    1.5273 H       1  UNL1        0.2944
     13 H           2.7063   -1.6317    0.7388 H       1  UNL1        0.2834
@<TRIPOS>BOND
     1     3     2    2
     2     7     5    1
     3     9     4    1
     4     2     1    1
     5     2    11   am
     6     4     1    2
     7     4     5    1
     8     1    10    1
     9     5     6    1
    10     5     8    1
    11    13    11    1
    12    11    12    1
