@<TRIPOS>MOLECULE
GS-533-0.out
 16 15 0 0 0
SMALL
MULLIKEN_CHARGES
****
Gaussian 16 # wB97XD def2tzvp, opt=(calcfc, maxcycles=70, maxstep=10), freq=norama
@<TRIPOS>ATOM
      1 C           0.2039    1.4152    0.1688 C.2     1  UNL1       -0.2610
      2 C           1.5051    0.7619   -0.1665 C.2     1  UNL1        0.3976
      3 O           2.1517    1.1392   -1.1370 O.2     1  UNL1       -0.4918
      4 C          -1.0057    0.8771    0.1851 C.2     1  UNL1        0.0212
      5 C          -2.2742    1.6165    0.4465 C.3     1  UNL1       -0.3384
      6 H          -2.0600    2.6656    0.6484 H       1  UNL1        0.1425
      7 H          -2.9422    1.5506   -0.4138 H       1  UNL1        0.1499
      8 H          -2.7965    1.1904    1.3045 H       1  UNL1        0.1497
      9 BR         -1.2709   -0.9798   -0.1854 Br      1  UNL1       -0.0872
     10 H           0.2735    2.4854    0.3338 H       1  UNL1        0.1788
     11 N           1.9275   -0.1987    0.6653 N.am    1  UNL1       -0.3177
     12 C           3.1589   -0.9241    0.4416 C.3     1  UNL1       -0.2487
     13 H           1.3391   -0.4610    1.4360 H       1  UNL1        0.2805
     14 H           3.3228   -1.5969    1.2792 H       1  UNL1        0.1489
     15 H           3.1091   -1.5081   -0.4792 H       1  UNL1        0.1379
     16 H           4.0010   -0.2355    0.3684 H       1  UNL1        0.1377
@<TRIPOS>BOND
     1     3     2    2
     2    15    12    1
     3     7     5    1
     4     9     4    1
     5     2     1    1
     6     2    11   am
     7     1     4    2
     8     1    10    1
     9     4     5    1
    10    16    12    1
    11    12    11    1
    12    12    14    1
    13     5     6    1
    14     5     8    1
    15    11    13    1
