@<TRIPOS>MOLECULE
GS-579-0.out
 16 15 0 0 0
SMALL
MULLIKEN_CHARGES
****
Gaussian 16 # wB97XD def2tzvp, opt=(calcfc, maxcycles=70, maxstep=10), freq=norama
@<TRIPOS>ATOM
      1 C          -0.2522    0.7235    0.0219 C.2     1  UNL1       -0.0884
      2 C          -1.4348   -0.2037   -0.1001 C.2     1  UNL1        0.3056
      3 O          -2.0302   -0.3264   -1.1598 O.2     1  UNL1       -0.4628
      4 C           0.9951    0.2693    0.0102 C.2     1  UNL1        0.0559
      5 C           2.2700    1.0412    0.0700 C.3     1  UNL1       -0.3404
      6 H           2.0891    2.1094    0.1575 H       1  UNL1        0.1257
      7 H           2.8640    0.7194    0.9271 H       1  UNL1        0.1461
      8 H           2.8623    0.8617   -0.8290 H       1  UNL1        0.1466
      9 CL          1.2779   -1.4648   -0.1152 Cl      1  UNL1       -0.1260
     10 C          -0.6448    2.1718    0.0860 C.3     1  UNL1       -0.3145
     11 H          -1.2715    2.3532    0.9622 H       1  UNL1        0.1438
     12 H           0.2101    2.8401    0.1336 H       1  UNL1        0.1236
     13 H          -1.2350    2.4296   -0.7958 H       1  UNL1        0.1456
     14 N          -1.8174   -0.8076    1.0358 N.am    1  UNL1       -0.4373
     15 H          -2.6014   -1.4380    1.0239 H       1  UNL1        0.2809
     16 H          -1.2789   -0.7217    1.8787 H       1  UNL1        0.2957
@<TRIPOS>BOND
     1     3     2    2
     2     8     5    1
     3    13    10    1
     4     9     4    1
     5     2     1    1
     6     2    14   am
     7     4     1    2
     8     4     5    1
     9     1    10    1
    10     5     6    1
    11     5     7    1
    12    10    12    1
    13    10    11    1
    14    15    14    1
    15    14    16    1
