@<TRIPOS>MOLECULE
GS-550-0.out
 19 18 0 0 0
SMALL
MULLIKEN_CHARGES
****
Gaussian 16 # wb97xd def2tzvp opt=(calcfc, maxcycles=100, maxstep=10) freq=noraman
@<TRIPOS>ATOM
      1 C          -0.4468   -0.3088   -0.1457 C.2     1  UNL1       -0.1176
      2 C          -0.2875    1.1165   -0.6153 C.2     1  UNL1        0.3235
      3 O          -0.3118    1.3381   -1.8190 O.2     1  UNL1       -0.4738
      4 C           0.5342   -1.1729    0.0641 C.2     1  UNL1        0.0073
      5 C           0.4546   -2.6151    0.4214 C.3     1  UNL1       -0.3480
      6 H          -0.5800   -2.9440    0.4865 H       1  UNL1        0.1456
      7 H           0.9704   -3.2160   -0.3289 H       1  UNL1        0.1559
      8 H           0.9424   -2.7905    1.3815 H       1  UNL1        0.1570
      9 BR          2.3184   -0.5130   -0.0883 Br      1  UNL1       -0.0601
     10 BR         -2.2705   -0.8176   -0.0168 Br      1  UNL1       -0.0366
     11 N          -0.1609    2.0633    0.3271 N.am    1  UNL1       -0.0981
     12 C          -0.0059    3.4512   -0.0628 C.3     1  UNL1       -0.2750
     13 C          -0.1131    1.8121    1.7539 C.3     1  UNL1       -0.2940
     14 H          -0.0925    3.5363   -1.1408 H       1  UNL1        0.1529
     15 H          -0.7788    4.0558    0.4151 H       1  UNL1        0.1445
     16 H           0.9722    3.8200    0.2538 H       1  UNL1        0.1440
     17 H          -0.2724    0.7607    1.9714 H       1  UNL1        0.1709
     18 H           0.8592    2.1094    2.1526 H       1  UNL1        0.1510
     19 H          -0.8884    2.3951    2.2542 H       1  UNL1        0.1507
@<TRIPOS>BOND
     1     3     2    2
     2    14    12    1
     3     2     1    1
     4     2    11   am
     5     7     5    1
     6     1    10    1
     7     1     4    2
     8     9     4    1
     9    12    16    1
    10    12    11    1
    11    12    15    1
    12     4     5    1
    13    11    13    1
    14     5     6    1
    15     5     8    1
    16    13    17    1
    17    13    18    1
    18    13    19    1
