@<TRIPOS>MOLECULE
GS-559-1.out
 23 23 0 0 0
SMALL
MULLIKEN_CHARGES
****
Gaussian 16 # wB97XD def2tzvp, opt=(calcfc, maxcycles=70, maxstep=1), freq=noraman
@<TRIPOS>ATOM
      1 C           1.5133    0.9457   -0.0445 C.2     1  UNL1       -0.0519
      2 C           0.1084    0.8470    0.5028 C.2     1  UNL1        0.4217
      3 O          -0.1315    1.1714    1.6487 O.2     1  UNL1       -0.4373
      4 C           2.3674   -0.0583   -0.1914 C.2     1  UNL1       -0.0255
      5 C           3.7763   -0.0002   -0.6665 C.3     1  UNL1       -0.3543
      6 H           4.0584    1.0183   -0.9230 H       1  UNL1        0.1428
      7 H           4.4485   -0.3701    0.1091 H       1  UNL1        0.1585
      8 H           3.9004   -0.6348   -1.5451 H       1  UNL1        0.1580
      9 BR          1.7737   -1.8064    0.2752 Br      1  UNL1       -0.0505
     10 CL          1.9644    2.5854   -0.3990 Cl      1  UNL1       -0.0693
     11 N          -0.7916    0.4142   -0.4078 N.am    1  UNL1       -0.2656
     12 C          -2.1711    0.1810   -0.2500 C.ar    1  UNL1        0.3115
     13 C          -2.8391   -0.3987   -1.3282 C.ar    1  UNL1       -0.2947
     14 C          -4.1962   -0.6526   -1.2525 C.ar    1  UNL1       -0.0979
     15 C          -4.9055   -0.3343   -0.1020 C.ar    1  UNL1       -0.1811
     16 C          -4.2384    0.2416    0.9670 C.ar    1  UNL1       -0.1082
     17 C          -2.8767    0.5043    0.9057 C.ar    1  UNL1       -0.2917
     18 H          -0.4153    0.1769   -1.3120 H       1  UNL1        0.2817
     19 H          -2.2907   -0.6514   -2.2280 H       1  UNL1        0.1481
     20 H          -4.7005   -1.1029   -2.0979 H       1  UNL1        0.1484
     21 H          -5.9673   -0.5337   -0.0419 H       1  UNL1        0.1455
     22 H          -4.7800    0.4956    1.8695 H       1  UNL1        0.1467
     23 H          -2.3671    0.9537    1.7422 H       1  UNL1        0.1653
@<TRIPOS>BOND
     1    19    13    1
     2    20    14    1
     3     8     5    1
     4    13    14   ar
     5    13    12   ar
     6    18    11    1
     7    14    15   ar
     8     6     5    1
     9     5     4    1
    10     5     7    1
    11    11    12    1
    12    11     2   am
    13    10     1    1
    14    12    17   ar
    15     4     1    2
    16     4     9    1
    17    15    21    1
    18    15    16   ar
    19     1     2    1
    20     2     3    2
    21    17    16   ar
    22    17    23    1
    23    16    22    1
