@<TRIPOS>MOLECULE
GS-578-0.out
 17 16 0 0 0
SMALL
MULLIKEN_CHARGES
****
Gaussian 16 # wB97XD def2tzvp, opt=(calcfc, maxcycles=70, maxstep=10), freq=norama
@<TRIPOS>ATOM
      1 C          -0.2236    0.7379   -0.0127 C.2     1  UNL1       -0.0651
      2 C          -1.4170   -0.1735   -0.1605 C.2     1  UNL1        0.2372
      3 O          -1.9403   -0.3176   -1.2410 O.2     1  UNL1       -0.3753
      4 C           1.0131    0.2602    0.0190 C.2     1  UNL1        0.0482
      5 C           2.3040    0.9969    0.1353 C.3     1  UNL1       -0.3434
      6 H           2.1457    2.0689    0.2235 H       1  UNL1        0.1266
      7 H           2.8551    0.6546    1.0130 H       1  UNL1        0.1466
      8 H           2.9270    0.8099   -0.7410 H       1  UNL1        0.1466
      9 CL          1.2472   -1.4834   -0.1086 Cl      1  UNL1       -0.1308
     10 C          -0.5965    2.1911    0.0576 C.3     1  UNL1       -0.3065
     11 H          -1.2768    2.3685    0.8939 H       1  UNL1        0.1431
     12 H           0.2658    2.8406    0.1794 H       1  UNL1        0.1263
     13 H          -1.1211    2.4801   -0.8556 H       1  UNL1        0.1477
     14 C          -1.9537   -0.7924    1.0961 C.3     1  UNL1       -0.3482
     15 H          -1.1659   -1.3490    1.6054 H       1  UNL1        0.1524
     16 H          -2.2710    0.0052    1.7731 H       1  UNL1        0.1562
     17 H          -2.7968   -1.4427    0.8738 H       1  UNL1        0.1383
@<TRIPOS>BOND
     1     3     2    2
     2    13    10    1
     3     8     5    1
     4     2     1    1
     5     2    14    1
     6     9     4    1
     7     1     4    2
     8     1    10    1
     9     4     5    1
    10    10    12    1
    11    10    11    1
    12     5     6    1
    13     5     7    1
    14    17    14    1
    15    14    15    1
    16    14    16    1
