@<TRIPOS>MOLECULE
GS-596-0.out
 15 14 0 0 0
SMALL
MULLIKEN_CHARGES
****
Gaussian 16 # wB97XD def2tzvp, opt=(calcfc, maxcycles=70, maxstep=10), freq=norama
@<TRIPOS>ATOM
      1 C           0.3672    0.5174    0.0311 C.2     1  UNL1       -0.0211
      2 C          -1.0850    0.2644    0.3206 C.2     1  UNL1        0.4023
      3 O          -1.5911    0.4912    1.3873 O.2     1  UNL1       -0.3879
      4 C           1.3015   -0.4216   -0.0452 C.2     1  UNL1        0.0417
      5 C           2.7599   -0.2448   -0.2743 C.3     1  UNL1       -0.3412
      6 H           3.0114    0.8050   -0.4024 H       1  UNL1        0.1419
      7 H           3.3203   -0.6452    0.5719 H       1  UNL1        0.1563
      8 H           3.0630   -0.7950   -1.1664 H       1  UNL1        0.1566
      9 CL          0.8007   -2.0771    0.1674 Cl      1  UNL1       -0.0792
     10 CL          0.7345    2.2026   -0.1244 Cl      1  UNL1       -0.0637
     11 O          -1.7204   -0.1970   -0.7415 O.3     1  UNL1       -0.2538
     12 C          -3.1166   -0.4805   -0.5748 C.3     1  UNL1       -0.1996
     13 H          -3.6523    0.4245   -0.2930 H       1  UNL1        0.1474
     14 H          -3.4576   -0.8410   -1.5399 H       1  UNL1        0.1536
     15 H          -3.2541   -1.2444    0.1889 H       1  UNL1        0.1469
@<TRIPOS>BOND
     1    14    12    1
     2     8     5    1
     3    11    12    1
     4    11     2    1
     5    12    13    1
     6    12    15    1
     7     6     5    1
     8     5     4    1
     9     5     7    1
    10    10     1    1
    11     4     1    2
    12     4     9    1
    13     1     2    1
    14     2     3    2
