@<TRIPOS>MOLECULE
GS-561-0.out
 21 21 0 0 0
SMALL
MULLIKEN_CHARGES
****
Gaussian 16 # wB97XD def2tzvp, opt=(calcfc, maxcycles=70, maxstep=10), freq=norama
@<TRIPOS>ATOM
      1 C          -0.6685    0.3675    0.0335 C.2     1  UNL1       -0.0636
      2 C          -1.0674    1.7759    0.2136 C.2     1  UNL1        0.1584
      3 O          -0.2756    2.6802    0.3516 O.2     1  UNL1       -0.3755
      4 C          -1.5662   -0.6201   -0.0990 C.2     1  UNL1        0.1200
      5 C          -1.2657   -2.0630   -0.3076 C.3     1  UNL1       -0.3691
      6 H          -0.1969   -2.2308   -0.4117 H       1  UNL1        0.1567
      7 H          -1.6385   -2.6455    0.5372 H       1  UNL1        0.1611
      8 H          -1.7771   -2.4202   -1.2028 H       1  UNL1        0.1591
      9 CL         -3.2821   -0.3059   -0.0383 Cl      1  UNL1       -0.0813
     10 C           0.7924    0.0790    0.0104 C.ar    1  UNL1        0.1424
     11 C           1.4212   -0.4662    1.1248 C.ar    1  UNL1       -0.2243
     12 C           2.7843   -0.7237    1.1061 C.ar    1  UNL1       -0.1336
     13 C           3.5310   -0.4344   -0.0265 C.ar    1  UNL1       -0.1368
     14 C           2.9101    0.1149   -1.1398 C.ar    1  UNL1       -0.1421
     15 C           1.5480    0.3731   -1.1204 C.ar    1  UNL1       -0.2093
     16 H           0.8377   -0.6939    2.0086 H       1  UNL1        0.1481
     17 H           3.2623   -1.1515    1.9782 H       1  UNL1        0.1454
     18 H           4.5945   -0.6362   -0.0422 H       1  UNL1        0.1470
     19 H           3.4875    0.3424   -2.0269 H       1  UNL1        0.1450
     20 H           1.0649    0.8009   -1.9904 H       1  UNL1        0.1447
     21 H          -2.1488    1.9768    0.2175 H       1  UNL1        0.1076
@<TRIPOS>BOND
     1    19    14    1
     2    20    15    1
     3     8     5    1
     4    14    15   ar
     5    14    13   ar
     6    15    10   ar
     7     6     5    1
     8     5     4    1
     9     5     7    1
    10     4     9    1
    11     4     1    2
    12    18    13    1
    13    13    12   ar
    14    10     1    1
    15    10    11   ar
    16     1     2    1
    17     2    21    1
    18     2     3    2
    19    12    11   ar
    20    12    17    1
    21    11    16    1
