@<TRIPOS>MOLECULE
GS-581-0.out
 19 18 0 0 0
SMALL
MULLIKEN_CHARGES
****
Gaussian 16 # wB97XD def2tzvp, opt=(calcfc, maxcycles=70, maxstep=10), freq=norama
@<TRIPOS>ATOM
      1 C           0.3724    0.8448   -0.0154 C.2     1  UNL1       -0.1202
      2 C          -1.0257    0.3888    0.3123 C.2     1  UNL1        0.3661
      3 O          -1.5037    0.5673    1.4258 O.2     1  UNL1       -0.4875
      4 C           1.3886   -0.0079   -0.0718 C.2     1  UNL1        0.0568
      5 C           2.8302    0.2722   -0.3332 C.3     1  UNL1       -0.3439
      6 H           3.1723   -0.2973   -1.1989 H       1  UNL1        0.1463
      7 H           3.0063    1.3277   -0.5240 H       1  UNL1        0.1252
      8 H           3.4354   -0.0319    0.5226 H       1  UNL1        0.1468
      9 CL          1.0912   -1.7213    0.2142 Cl      1  UNL1       -0.1281
     10 C           0.4825    2.3319   -0.1936 C.3     1  UNL1       -0.3189
     11 H           0.1155    2.8344    0.7037 H       1  UNL1        0.1459
     12 H           1.5001    2.6629   -0.3797 H       1  UNL1        0.1228
     13 H          -0.1431    2.6573   -1.0280 H       1  UNL1        0.1436
     14 N          -1.7133   -0.1491   -0.7036 N.am    1  UNL1       -0.3066
     15 C          -3.0679   -0.6324   -0.5485 C.3     1  UNL1       -0.2519
     16 H          -1.2361   -0.3020   -1.5744 H       1  UNL1        0.2805
     17 H          -3.7100    0.1547   -0.1531 H       1  UNL1        0.1378
     18 H          -3.4421   -0.9388   -1.5219 H       1  UNL1        0.1486
     19 H          -3.1070   -1.4850    0.1323 H       1  UNL1        0.1367
@<TRIPOS>BOND
     1    16    14    1
     2    18    15    1
     3     6     5    1
     4    13    10    1
     5    14    15    1
     6    14     2   am
     7    15    17    1
     8    15    19    1
     9     7     5    1
    10    12    10    1
    11     5     4    1
    12     5     8    1
    13    10     1    1
    14    10    11    1
    15     4     1    2
    16     4     9    1
    17     1     2    1
    18     2     3    2
