@<TRIPOS>MOLECULE
GS-507-0.out
 16 15 0 0 0
SMALL
MULLIKEN_CHARGES
****
Gaussian 16 # wB97XD def2tzvp, opt=(calcfc, maxcycles=70, maxstep=10), freq=norama
@<TRIPOS>ATOM
      1 C           0.2526   -0.0392   -0.0245 C.2     1  UNL1       -0.0588
      2 C           0.8617    1.3352   -0.1201 C.2     1  UNL1        0.2860
      3 O           0.7353    2.0251   -1.1183 O.2     1  UNL1       -0.4505
      4 C           0.9274   -1.1845   -0.0540 C.2     1  UNL1       -0.0036
      5 C           0.3026   -2.5436   -0.0062 C.3     1  UNL1       -0.3424
      6 H           0.4678   -3.0556   -0.9576 H       1  UNL1        0.1471
      7 H           0.7902   -3.1425    0.7660 H       1  UNL1        0.1401
      8 H          -0.7653   -2.5163    0.1925 H       1  UNL1        0.1352
      9 C           2.4273   -1.1987   -0.1708 C.3     1  UNL1       -0.3524
     10 H           2.8634   -1.6409    0.7281 H       1  UNL1        0.1482
     11 H           2.7164   -1.8320   -1.0123 H       1  UNL1        0.1416
     12 H           2.8632   -0.2132   -0.3163 H       1  UNL1        0.1428
     13 BR         -1.6491    0.0589    0.0630 Br      1  UNL1       -0.0843
     14 N           1.5277    1.7342    0.9750 N.am    1  UNL1       -0.4331
     15 H           1.9714    2.6371    0.9848 H       1  UNL1        0.2843
     16 H           1.6064    1.1449    1.7839 H       1  UNL1        0.2999
@<TRIPOS>BOND
     1     3     2    2
     2    11     9    1
     3     6     5    1
     4    12     9    1
     5     9     4    1
     6     9    10    1
     7     2     1    1
     8     2    14   am
     9     4     1    2
    10     4     5    1
    11     1    13    1
    12     5     8    1
    13     5     7    1
    14    14    15    1
    15    14    16    1
