@<TRIPOS>MOLECULE
GS-553-0.out
 11 10 0 0 0
SMALL
MULLIKEN_CHARGES
****
Gaussian 16 # wB97XD def2tzvp, opt=(calcfc, maxcycles=70, maxstep=10), freq=norama
@<TRIPOS>ATOM
      1 C           0.9356   -0.0238   -0.0000 C.2     1  UNL1       -0.0120
      2 C           1.0807   -1.4948   -0.0000 C.2     1  UNL1        0.1404
      3 O           2.1429   -2.0626   -0.0000 O.2     1  UNL1       -0.3491
      4 C          -0.2264    0.6419   -0.0000 C.2     1  UNL1        0.0589
      5 C          -0.4140    2.1166   -0.0000 C.3     1  UNL1       -0.3364
      6 H           0.5384    2.6388   -0.0000 H       1  UNL1        0.1467
      7 H          -0.9875    2.4135    0.8797 H       1  UNL1        0.1636
      8 H          -0.9875    2.4135   -0.8797 H       1  UNL1        0.1636
      9 BR         -1.8730   -0.3051    0.0000 Br      1  UNL1       -0.0289
     10 CL          2.4387    0.8427    0.0000 Cl      1  UNL1       -0.0791
     11 H           0.1342   -2.0526   -0.0000 H       1  UNL1        0.1323
@<TRIPOS>BOND
     1     8     5    1
     2     6     5    1
     3     1     2    1
     4     1     4    2
     5     1    10    1
     6     2     3    2
     7     2    11    1
     8     4     5    1
     9     4     9    1
    10     5     7    1
