@<TRIPOS>MOLECULE
GS-552-1.out
 21 21 0 0 0
SMALL
MULLIKEN_CHARGES
****
Gaussian 16 # wB97XD def2tzvp, opt=(calcfc, maxcycles=70, maxstep=1), freq=noraman
@<TRIPOS>ATOM
      1 C          -0.8926   -0.4371    0.1998 C.2     1  UNL1       -0.0746
      2 C           0.3625   -0.3021    1.0320 C.2     1  UNL1        0.3781
      3 O           0.2713   -0.3202    2.2374 O.2     1  UNL1       -0.3594
      4 C          -1.6316    0.5573   -0.2652 C.2     1  UNL1       -0.0041
      5 C          -2.8985    0.5003   -1.0429 C.3     1  UNL1       -0.3512
      6 H          -3.2047   -0.5295   -1.2131 H       1  UNL1        0.1464
      7 H          -3.6919    1.0215   -0.5054 H       1  UNL1        0.1587
      8 H          -2.7677    0.9948   -2.0065 H       1  UNL1        0.1582
      9 BR         -1.0148    2.3291    0.0851 Br      1  UNL1       -0.0570
     10 BR         -1.3537   -2.2552   -0.0762 Br      1  UNL1       -0.0306
     11 C           1.6601   -0.1939    0.3210 C.ar    1  UNL1        0.0313
     12 C           2.8308   -0.1012    1.0735 C.ar    1  UNL1       -0.2143
     13 C           4.0548    0.0048    0.4402 C.ar    1  UNL1       -0.1199
     14 C           4.1186    0.0176   -0.9485 C.ar    1  UNL1       -0.1182
     15 C           2.9580   -0.0755   -1.7026 C.ar    1  UNL1       -0.1496
     16 C           1.7300   -0.1808   -1.0703 C.ar    1  UNL1       -0.1792
     17 H           2.7660   -0.1124    2.1533 H       1  UNL1        0.1517
     18 H           4.9620    0.0776    1.0254 H       1  UNL1        0.1522
     19 H           5.0779    0.1009   -1.4432 H       1  UNL1        0.1543
     20 H           3.0089   -0.0653   -2.7832 H       1  UNL1        0.1520
     21 H           0.8261   -0.2500   -1.6615 H       1  UNL1        0.1753
@<TRIPOS>BOND
     1    20    15    1
     2     8     5    1
     3    15    16   ar
     4    15    14   ar
     5    21    16    1
     6    19    14    1
     7     6     5    1
     8    16    11   ar
     9     5     7    1
    10     5     4    1
    11    14    13   ar
    12     4     9    1
    13     4     1    2
    14    10     1    1
    15     1     2    1
    16    11     2    1
    17    11    12   ar
    18    13    18    1
    19    13    12   ar
    20     2     3    2
    21    12    17    1
