@<TRIPOS>MOLECULE
GS-590-0.out
 19 18 0 0 0
SMALL
MULLIKEN_CHARGES
****
Gaussian 16 # wB97XD def2tzvp, opt=(calcfc, maxcycles=70, maxstep=10), freq=norama
@<TRIPOS>ATOM
      1 C           0.3769    0.0955   -0.1620 C.2     1  UNL1       -0.1433
      2 C          -0.9854   -0.3578   -0.6252 C.2     1  UNL1        0.3152
      3 O          -1.1687   -0.5188   -1.8250 O.2     1  UNL1       -0.4761
      4 C           0.7453    1.3573    0.0089 C.2     1  UNL1        0.0712
      5 C           2.0829    1.9070    0.3555 C.3     1  UNL1       -0.3423
      6 H           2.8199    1.1136    0.4512 H       1  UNL1        0.1440
      7 H           2.4095    2.6042   -0.4175 H       1  UNL1        0.1542
      8 H           2.0266    2.4550    1.2974 H       1  UNL1        0.1552
      9 CL         -0.4938    2.5769   -0.1785 Cl      1  UNL1       -0.0897
     10 BR          1.5998   -1.3390    0.0197 Br      1  UNL1       -0.0334
     11 N          -1.9108   -0.5876    0.3192 N.am    1  UNL1       -0.0976
     12 C          -3.2386   -1.0260   -0.0646 C.3     1  UNL1       -0.2760
     13 C          -1.7133   -0.3829    1.7405 C.3     1  UNL1       -0.2906
     14 H          -3.2716   -1.1845   -1.1373 H       1  UNL1        0.1525
     15 H          -3.4816   -1.9572    0.4502 H       1  UNL1        0.1442
     16 H          -3.9760   -0.2700    0.2142 H       1  UNL1        0.1441
     17 H          -0.6876   -0.1006    1.9555 H       1  UNL1        0.1703
     18 H          -2.3776    0.4057    2.1004 H       1  UNL1        0.1491
     19 H          -1.9432   -1.3046    2.2780 H       1  UNL1        0.1491
@<TRIPOS>BOND
     1     3     2    2
     2    14    12    1
     3     2     1    1
     4     2    11   am
     5     7     5    1
     6     9     4    1
     7     1     4    2
     8     1    10    1
     9    12    16    1
    10    12    11    1
    11    12    15    1
    12     4     5    1
    13    11    13    1
    14     5     6    1
    15     5     8    1
    16    13    17    1
    17    13    18    1
    18    13    19    1
