@<TRIPOS>MOLECULE
GS-532-0.out
 15 14 0 0 0
SMALL
MULLIKEN_CHARGES
****
Gaussian 16 # wB97XD def2tzvp, opt=(calcfc, maxcycles=70, maxstep=10), freq=norama
@<TRIPOS>ATOM
      1 C           0.4845    1.0741   -0.0000 C.2     1  UNL1       -0.3196
      2 C           1.5322    0.0361   -0.0000 C.2     1  UNL1        0.4680
      3 O           1.3816   -1.1609   -0.0000 O.2     1  UNL1       -0.4163
      4 C          -0.8378    0.9256   -0.0000 C.2     1  UNL1        0.0824
      5 C          -1.7928    2.0715   -0.0000 C.3     1  UNL1       -0.3414
      6 H          -1.2533    3.0175   -0.0000 H       1  UNL1        0.1445
      7 H          -2.4367    2.0277   -0.8799 H       1  UNL1        0.1544
      8 H          -2.4367    2.0277    0.8799 H       1  UNL1        0.1544
      9 BR         -1.7036   -0.7605    0.0000 Br      1  UNL1       -0.0445
     10 H           0.8558    2.0913   -0.0000 H       1  UNL1        0.1668
     11 O           2.7350    0.6215    0.0000 O.3     1  UNL1       -0.2792
     12 C           3.8647   -0.2515    0.0000 C.3     1  UNL1       -0.1955
     13 H           4.7368    0.3955    0.0000 H       1  UNL1        0.1480
     14 H           3.8611   -0.8807    0.8895 H       1  UNL1        0.1391
     15 H           3.8612   -0.8807   -0.8895 H       1  UNL1        0.1391
@<TRIPOS>BOND
     1    15    12    1
     2     7     5    1
     3     3     2    2
     4     2     1    1
     5     2    11    1
     6    10     1    1
     7     1     4    2
     8     6     5    1
     9     4     5    1
    10     4     9    1
    11     5     8    1
    12    11    12    1
    13    12    13    1
    14    12    14    1
