@<TRIPOS>MOLECULE
GS-506-1.out
 17 16 0 0 0
SMALL
MULLIKEN_CHARGES
****
Gaussian 16 # wB97XD def2tzvp, opt=(calcfc, maxcycles=70, maxstep=1), freq=noraman
@<TRIPOS>ATOM
      1 C           0.2997    0.0557   -0.0377 C.2     1  UNL1       -0.1038
      2 C           0.5082    1.5345   -0.0902 C.2     1  UNL1        0.2762
      3 O           1.4724    1.9922   -0.6661 O.2     1  UNL1       -0.3898
      4 C           1.2739   -0.8571    0.0659 C.2     1  UNL1        0.0750
      5 C           1.0311   -2.3337    0.1206 C.3     1  UNL1       -0.3583
      6 H           1.8285   -2.8535   -0.4126 H       1  UNL1        0.1473
      7 H           1.0717   -2.6688    1.1611 H       1  UNL1        0.1582
      8 H           0.0722   -2.6280   -0.2964 H       1  UNL1        0.1404
      9 C           2.7251   -0.4873    0.1873 C.3     1  UNL1       -0.3594
     10 H           3.2005   -1.1591    0.9044 H       1  UNL1        0.1414
     11 H           3.2197   -0.6422   -0.7750 H       1  UNL1        0.1514
     12 H           2.8903    0.5418    0.4877 H       1  UNL1        0.1404
     13 BR         -1.5410   -0.4746   -0.0844 Br      1  UNL1       -0.1021
     14 C          -0.4883    2.4369    0.5859 C.3     1  UNL1       -0.3738
     15 H          -0.8208    2.0256    1.5389 H       1  UNL1        0.1541
     16 H          -0.0328    3.4140    0.7295 H       1  UNL1        0.1421
     17 H          -1.3708    2.5494   -0.0471 H       1  UNL1        0.1606
@<TRIPOS>BOND
     1    11     9    1
     2     3     2    2
     3     6     5    1
     4     8     5    1
     5     2     1    1
     6     2    14    1
     7    13     1    1
     8    17    14    1
     9     1     4    2
    10     4     5    1
    11     4     9    1
    12     5     7    1
    13     9    12    1
    14     9    10    1
    15    14    16    1
    16    14    15    1
