@<TRIPOS>MOLECULE
GS-564-0.out
 25 25 0 0 0
SMALL
MULLIKEN_CHARGES
****
Gaussian 16 # wB97XD def2tzvp, opt=(calcfc, maxcycles=70, maxstep=10), freq=norama
@<TRIPOS>ATOM
      1 C           0.3574    0.2528    0.1351 C.2     1  UNL1       -0.0259
      2 C           1.1057   -1.0414    0.2680 C.2     1  UNL1        0.3588
      3 O           1.4220   -1.5357    1.3201 O.2     1  UNL1       -0.3989
      4 C           0.9993    1.4160    0.0965 C.2     1  UNL1        0.0680
      5 C           0.4106    2.7842    0.0545 C.3     1  UNL1       -0.3901
      6 H          -0.6682    2.7466    0.1879 H       1  UNL1        0.1557
      7 H           0.8445    3.3978    0.8451 H       1  UNL1        0.1520
      8 H           0.6309    3.2667   -0.8995 H       1  UNL1        0.1580
      9 CL          2.7515    1.4155    0.1087 Cl      1  UNL1       -0.1028
     10 C          -1.1201    0.1130    0.0668 C.ar    1  UNL1        0.1774
     11 C          -1.8396    0.6525   -0.9971 C.ar    1  UNL1       -0.2613
     12 C          -3.2162    0.5022   -1.0617 C.ar    1  UNL1       -0.1319
     13 C          -3.8883   -0.1966   -0.0695 C.ar    1  UNL1       -0.1300
     14 C          -3.1768   -0.7483    0.9866 C.ar    1  UNL1       -0.1550
     15 C          -1.8006   -0.5989    1.0533 C.ar    1  UNL1       -0.2103
     16 H          -1.3156    1.1853   -1.7806 H       1  UNL1        0.1663
     17 H          -3.7632    0.9274   -1.8935 H       1  UNL1        0.1467
     18 H          -4.9630   -0.3149   -0.1213 H       1  UNL1        0.1483
     19 H          -3.6947   -1.2964    1.7632 H       1  UNL1        0.1464
     20 H          -1.2497   -1.0295    1.8803 H       1  UNL1        0.1535
     21 O           1.3249   -1.5970   -0.9157 O.3     1  UNL1       -0.2590
     22 C           1.9946   -2.8635   -0.9131 C.3     1  UNL1       -0.2041
     23 H           2.0763   -3.1534   -1.9560 H       1  UNL1        0.1513
     24 H           2.9832   -2.7659   -0.4668 H       1  UNL1        0.1436
     25 H           1.4118   -3.5971   -0.3581 H       1  UNL1        0.1433
@<TRIPOS>BOND
     1    23    22    1
     2    17    12    1
     3    16    11    1
     4    12    11   ar
     5    12    13   ar
     6    11    10   ar
     7    21    22    1
     8    21     2    1
     9    22    24    1
    10    22    25    1
    11     8     5    1
    12    18    13    1
    13    13    14   ar
    14     5     4    1
    15     5     6    1
    16     5     7    1
    17    10     1    1
    18    10    15   ar
    19     4     9    1
    20     4     1    2
    21     1     2    1
    22     2     3    2
    23    14    15   ar
    24    14    19    1
    25    15    20    1
