@<TRIPOS>MOLECULE
GS-54-1.out
 26 26 0 0 0
SMALL
MULLIKEN_CHARGES
****
Gaussian 16 # wB97XD def2tzvp, opt=(maxcycles=70, maxstep=1), freq=noraman, scrf=(
@<TRIPOS>ATOM
      1 C          -0.7985    0.0790   -0.0452 C.2     1  UNL1       -0.1732
      2 C          -2.1550   -0.5337   -0.0360 C.2     1  UNL1        0.3147
      3 O          -2.3016   -1.7553   -0.0851 O.2     1  UNL1       -0.5234
      4 C           0.2844   -0.6948    0.0153 C.2     1  UNL1       -0.2162
      5 C           1.6846   -0.2617    0.0052 C.ar    1  UNL1        0.2572
      6 C           2.0701    1.0794   -0.0782 C.ar    1  UNL1       -0.2282
      7 C           3.4082    1.4296   -0.0835 C.ar    1  UNL1       -0.1401
      8 C           4.3906    0.4491   -0.0055 C.ar    1  UNL1       -0.1375
      9 C           4.0237   -0.8851    0.0773 C.ar    1  UNL1       -0.1399
     10 C           2.6821   -1.2349    0.0825 C.ar    1  UNL1       -0.2262
     11 H           1.3221    1.8595   -0.1397 H       1  UNL1        0.1396
     12 H           3.6891    2.4730   -0.1486 H       1  UNL1        0.1460
     13 H           5.4368    0.7272   -0.0098 H       1  UNL1        0.1483
     14 H           4.7817   -1.6556    0.1382 H       1  UNL1        0.1460
     15 H           2.3986   -2.2788    0.1475 H       1  UNL1        0.1437
     16 H           0.1230   -1.7668    0.0787 H       1  UNL1        0.1371
     17 H          -0.7090    1.1534   -0.1122 H       1  UNL1        0.1669
     18 N          -3.2070    0.3159    0.0208 N.am    1  UNL1       -0.0893
     19 C          -4.5591   -0.2046   -0.0331 C.3     1  UNL1       -0.2986
     20 C          -3.0764    1.7609    0.1361 C.3     1  UNL1       -0.3294
     21 H          -4.5238   -1.2757   -0.2025 H       1  UNL1        0.1479
     22 H          -5.0837   -0.0067    0.9048 H       1  UNL1        0.1424
     23 H          -5.1099    0.2724   -0.8463 H       1  UNL1        0.1441
     24 H          -2.4307    2.0429    0.9672 H       1  UNL1        0.1533
     25 H          -2.6982    2.2124   -0.7835 H       1  UNL1        0.1523
     26 H          -4.0629    2.1744    0.3316 H       1  UNL1        0.1625
@<TRIPOS>BOND
     1    23    19    1
     2    25    20    1
     3    21    19    1
     4    12     7    1
     5    11     6    1
     6    17     1    1
     7     3     2    2
     8     7     6   ar
     9     7     8   ar
    10     6     5   ar
    11     1     2    1
    12     1     4    2
    13     2    18   am
    14    19    18    1
    15    19    22    1
    16    13     8    1
    17     8     9   ar
    18     5     4    1
    19     5    10   ar
    20     4    16    1
    21    18    20    1
    22     9    10   ar
    23     9    14    1
    24    10    15    1
    25    20    26    1
    26    20    24    1
