@<TRIPOS>MOLECULE
GS-546-0.out
 14 13 0 0 0
SMALL
MULLIKEN_CHARGES
****
Gaussian 16 # wB97XD def2tzvp, opt=(calcfc, maxcycles=70, maxstep=10), freq=norama
@<TRIPOS>ATOM
      1 C          -0.4496    0.0571   -0.0472 C.2     1  UNL1       -0.0221
      2 C          -0.3005    1.5584   -0.1751 C.2     1  UNL1        0.2248
      3 O          -0.2621    2.0667   -1.2668 O.2     1  UNL1       -0.3458
      4 C           0.5346   -0.8243    0.0232 C.2     1  UNL1       -0.0006
      5 C           0.4626   -2.3064    0.1332 C.3     1  UNL1       -0.3405
      6 H          -0.5707   -2.6448    0.1625 H       1  UNL1        0.1465
      7 H           0.9626   -2.7700   -0.7184 H       1  UNL1        0.1563
      8 H           0.9701   -2.6392    1.0398 H       1  UNL1        0.1563
      9 BR          2.3161   -0.1372   -0.0195 Br      1  UNL1       -0.0600
     10 BR         -2.2744   -0.4580   -0.0068 Br      1  UNL1       -0.0348
     11 C          -0.2491    2.3251    1.1098 C.3     1  UNL1       -0.3487
     12 H           0.6072    1.9882    1.6978 H       1  UNL1        0.1602
     13 H          -0.1745    3.3918    0.9130 H       1  UNL1        0.1454
     14 H          -1.1447    2.1118    1.6972 H       1  UNL1        0.1630
@<TRIPOS>BOND
     1     3     2    2
     2     7     5    1
     3     2     1    1
     4     2    11    1
     5     1    10    1
     6     1     4    2
     7     9     4    1
     8     4     5    1
     9     5     6    1
    10     5     8    1
    11    13    11    1
    12    11    14    1
    13    11    12    1
