@<TRIPOS>MOLECULE
GS-500-0.out
 21 20 0 0 0
SMALL
MULLIKEN_CHARGES
****
Gaussian 16 # wB97XD def2tzvp, opt=(calcfc, maxcycles=70, maxstep=10), freq=norama
@<TRIPOS>ATOM
      1 C           0.4402    0.4838    0.1185 C.2     1  UNL1       -0.1283
      2 C          -0.8597   -0.2396    0.1805 C.2     1  UNL1        0.4215
      3 O          -1.0531   -1.3386    0.6487 O.2     1  UNL1       -0.4412
      4 C           1.5876   -0.1926   -0.0543 C.2     1  UNL1        0.0852
      5 C           2.9325    0.4736   -0.1195 C.3     1  UNL1       -0.3603
      6 H           3.6537   -0.1063    0.4610 H       1  UNL1        0.1389
      7 H           3.2917    0.4739   -1.1527 H       1  UNL1        0.1473
      8 H           2.9457    1.4971    0.2427 H       1  UNL1        0.1195
      9 C           1.6859   -1.6808   -0.2462 C.3     1  UNL1       -0.3733
     10 H           2.4552   -1.8965   -0.9908 H       1  UNL1        0.1322
     11 H           2.0069   -2.1537    0.6862 H       1  UNL1        0.1421
     12 H           0.7535   -2.1450   -0.5502 H       1  UNL1        0.1337
     13 C           0.3293    1.9844    0.2236 C.3     1  UNL1       -0.3331
     14 H          -0.3643    2.2679    1.0164 H       1  UNL1        0.1333
     15 H           1.2858    2.4534    0.4348 H       1  UNL1        0.1136
     16 H          -0.0553    2.4124   -0.7044 H       1  UNL1        0.1323
     17 O          -1.8527    0.4973   -0.3331 O.3     1  UNL1       -0.2800
     18 C          -3.1589   -0.0732   -0.2885 C.3     1  UNL1       -0.1987
     19 H          -3.8195    0.6661   -0.7325 H       1  UNL1        0.1439
     20 H          -3.1933   -1.0003   -0.8599 H       1  UNL1        0.1354
     21 H          -3.4548   -0.2729    0.7411 H       1  UNL1        0.1360
@<TRIPOS>BOND
     1     7     5    1
     2    10     9    1
     3    20    18    1
     4    19    18    1
     5    16    13    1
     6    12     9    1
     7    17    18    1
     8    17     2    1
     9    18    21    1
    10     9     4    1
    11     9    11    1
    12     5     4    1
    13     5     8    1
    14     5     6    1
    15     4     1    2
    16     1     2    1
    17     1    13    1
    18     2     3    2
    19    13    15    1
    20    13    14    1
