@<TRIPOS>MOLECULE
GS-556-0.out
 15 14 0 0 0
SMALL
MULLIKEN_CHARGES
****
Gaussian 16 # wB97XD def2tzvp, opt=(calcfc, maxcycles=70, maxstep=10), freq=norama
@<TRIPOS>ATOM
      1 C          -0.3865    0.8540    0.0435 C.2     1  UNL1        0.0064
      2 C          -1.3366   -0.2728    0.3373 C.2     1  UNL1        0.4092
      3 O          -1.7388   -0.5232    1.4421 O.2     1  UNL1       -0.3853
      4 C           0.9269    0.7367   -0.0864 C.2     1  UNL1       -0.0238
      5 C           1.9226    1.8150   -0.3279 C.3     1  UNL1       -0.3515
      6 H           1.4343    2.7837   -0.4073 H       1  UNL1        0.1434
      7 H           2.6450    1.8478    0.4890 H       1  UNL1        0.1580
      8 H           2.4707    1.6176   -1.2502 H       1  UNL1        0.1583
      9 BR          1.6697   -1.0082    0.0634 Br      1  UNL1       -0.0479
     10 CL         -1.1945    2.3859   -0.0517 Cl      1  UNL1       -0.0631
     11 O          -1.6874   -0.9089   -0.7657 O.3     1  UNL1       -0.2526
     12 C          -2.5973   -2.0066   -0.6061 C.3     1  UNL1       -0.2005
     13 H          -2.7632   -2.3946   -1.6058 H       1  UNL1        0.1540
     14 H          -2.1530   -2.7695    0.0313 H       1  UNL1        0.1473
     15 H          -3.5322   -1.6586   -0.1700 H       1  UNL1        0.1481
@<TRIPOS>BOND
     1    13    12    1
     2     8     5    1
     3    11    12    1
     4    11     2    1
     5    12    15    1
     6    12    14    1
     7     6     5    1
     8     5     4    1
     9     5     7    1
    10     4     1    2
    11     4     9    1
    12    10     1    1
    13     1     2    1
    14     2     3    2
