@<TRIPOS>MOLECULE
GS-586-0.out
 14 13 0 0 0
SMALL
MULLIKEN_CHARGES
****
Gaussian 16 # wB97XD def2tzvp, opt=(calcfc, maxcycles=70, maxstep=10), freq=norama
@<TRIPOS>ATOM
      1 C           0.0023    0.0391   -0.0507 C.2     1  UNL1       -0.0445
      2 C           0.2828    1.5210   -0.1786 C.2     1  UNL1        0.2179
      3 O           0.3244    2.0325   -1.2688 O.2     1  UNL1       -0.3472
      4 C           0.9220   -0.9122    0.0095 C.2     1  UNL1        0.0565
      5 C           0.7465   -2.3850    0.1176 C.3     1  UNL1       -0.3361
      6 H          -0.3068   -2.6517    0.1549 H       1  UNL1        0.1451
      7 H           1.2077   -2.8781   -0.7394 H       1  UNL1        0.1545
      8 H           1.2386   -2.7518    1.0196 H       1  UNL1        0.1546
      9 CL          2.5940   -0.3982   -0.0457 Cl      1  UNL1       -0.0888
     10 BR         -1.8516   -0.3346    0.0049 Br      1  UNL1       -0.0309
     11 C           0.4587    2.2693    1.1060 C.3     1  UNL1       -0.3466
     12 H           1.3045    1.8498    1.6549 H       1  UNL1        0.1581
     13 H           0.6224    3.3265    0.9118 H       1  UNL1        0.1446
     14 H          -0.4271    2.1329    1.7302 H       1  UNL1        0.1628
@<TRIPOS>BOND
     1     3     2    2
     2     7     5    1
     3     2     1    1
     4     2    11    1
     5     1    10    1
     6     1     4    2
     7     9     4    1
     8     4     5    1
     9     5     6    1
    10     5     8    1
    11    13    11    1
    12    11    12    1
    13    11    14    1
