@<TRIPOS>MOLECULE
GS-544-0.out
 24 24 0 0 0
SMALL
MULLIKEN_CHARGES
****
Gaussian 16 # wB97XD def2tzvp, opt=(calcfc, maxcycles=70, maxstep=10), freq=norama
@<TRIPOS>ATOM
      1 C          -0.9370    1.2830    0.0095 C.2     1  UNL1       -0.0989
      2 C           0.2266    0.9275   -0.8817 C.2     1  UNL1        0.4021
      3 O           0.1583    1.1625   -2.0690 O.2     1  UNL1       -0.3830
      4 C          -1.8589    0.3948    0.3533 C.2     1  UNL1       -0.0011
      5 C          -3.0863    0.5889    1.1780 C.3     1  UNL1       -0.3492
      6 H          -3.0632   -0.0636    2.0524 H       1  UNL1        0.1499
      7 H          -3.1778    1.6178    1.5184 H       1  UNL1        0.1275
      8 H          -3.9772    0.3365    0.6006 H       1  UNL1        0.1508
      9 BR         -1.6684   -1.4178   -0.2563 Br      1  UNL1       -0.1099
     10 C          -0.9411    2.7339    0.4016 C.3     1  UNL1       -0.3215
     11 H          -0.9836    3.3570   -0.4942 H       1  UNL1        0.1519
     12 H          -1.7770    2.9948    1.0442 H       1  UNL1        0.1269
     13 H          -0.0153    2.9821    0.9268 H       1  UNL1        0.1495
     14 C           1.4584    0.3750   -0.2552 C.ar    1  UNL1        0.0295
     15 C           2.5501    0.0674   -1.0662 C.ar    1  UNL1       -0.2234
     16 C           3.7083   -0.4421   -0.5089 C.ar    1  UNL1       -0.1167
     17 C           3.7868   -0.6446    0.8642 C.ar    1  UNL1       -0.1246
     18 C           2.7056   -0.3381    1.6775 C.ar    1  UNL1       -0.1476
     19 C           1.5430    0.1690    1.1197 C.ar    1  UNL1       -0.1895
     20 H           2.4758    0.2318   -2.1330 H       1  UNL1        0.1482
     21 H           4.5529   -0.6827   -1.1414 H       1  UNL1        0.1503
     22 H           4.6943   -1.0430    1.2999 H       1  UNL1        0.1525
     23 H           2.7671   -0.4957    2.7463 H       1  UNL1        0.1501
     24 H           0.6974    0.4012    1.7545 H       1  UNL1        0.1762
@<TRIPOS>BOND
     1    20    15    1
     2     3     2    2
     3    21    16    1
     4    15    16   ar
     5    15    14   ar
     6     2    14    1
     7     2     1    1
     8    16    17   ar
     9    11    10    1
    10     9     4    1
    11    14    19   ar
    12     1     4    2
    13     1    10    1
    14     4     5    1
    15    10    13    1
    16    10    12    1
    17     8     5    1
    18    17    22    1
    19    17    18   ar
    20    19    18   ar
    21    19    24    1
    22     5     7    1
    23     5     6    1
    24    18    23    1
