@<TRIPOS>MOLECULE
GS-519-1.out
 26 26 0 0 0
SMALL
MULLIKEN_CHARGES
****
Gaussian 16 # wB97XD def2tzvp, opt=(calcfc, maxcycles=70, maxstep=1), freq=noraman
@<TRIPOS>ATOM
      1 C          -1.9326   -0.1569   -0.1229 C.2     1  UNL1       -0.1147
      2 C          -0.5610    0.4393   -0.2701 C.2     1  UNL1        0.4516
      3 O          -0.4091    1.5684   -0.7032 O.2     1  UNL1       -0.4661
      4 C          -3.0228    0.5246    0.2393 C.2     1  UNL1        0.0516
      5 C          -4.3819   -0.0958    0.3437 C.3     1  UNL1       -0.3626
      6 H          -4.6159   -0.2830    1.3955 H       1  UNL1        0.1565
      7 H          -5.1303    0.6059   -0.0283 H       1  UNL1        0.1446
      8 H          -4.4709   -1.0323   -0.1995 H       1  UNL1        0.1363
      9 C          -2.9910    1.9768    0.6187 C.3     1  UNL1       -0.3606
     10 H          -3.6255    2.1238    1.4951 H       1  UNL1        0.1400
     11 H          -1.9942    2.3517    0.8242 H       1  UNL1        0.1412
     12 H          -3.4196    2.5736   -0.1905 H       1  UNL1        0.1496
     13 CL         -2.0222   -1.8790   -0.4633 Cl      1  UNL1       -0.1244
     14 N           0.4562   -0.3685    0.1239 N.am    1  UNL1       -0.2666
     15 C           1.8407   -0.1334    0.0928 C.ar    1  UNL1        0.3053
     16 C           2.6645   -1.1822    0.5062 C.ar    1  UNL1       -0.2978
     17 C           4.0391   -1.0346    0.5103 C.ar    1  UNL1       -0.1007
     18 C           4.6172    0.1601    0.1017 C.ar    1  UNL1       -0.1841
     19 C           3.7987    1.2001   -0.3076 C.ar    1  UNL1       -0.1130
     20 C           2.4166    1.0679   -0.3156 C.ar    1  UNL1       -0.2865
     21 H           0.1881   -1.2807    0.4565 H       1  UNL1        0.2535
     22 H           2.2214   -2.1183    0.8258 H       1  UNL1        0.1461
     23 H           4.6608   -1.8594    0.8344 H       1  UNL1        0.1469
     24 H           5.6930    0.2767    0.1040 H       1  UNL1        0.1440
     25 H           4.2353    2.1379   -0.6277 H       1  UNL1        0.1449
     26 H           1.7902    1.8847   -0.6334 H       1  UNL1        0.1648
@<TRIPOS>BOND
     1     3     2    2
     2    26    20    1
     3    25    19    1
     4    13     1    1
     5    20    19   ar
     6    20    15   ar
     7    19    18   ar
     8     2     1    1
     9     2    14   am
    10     8     5    1
    11    12     9    1
    12     1     4    2
    13     7     5    1
    14    15    14    1
    15    15    16   ar
    16    18    24    1
    17    18    17   ar
    18    14    21    1
    19     4     5    1
    20     4     9    1
    21     5     6    1
    22    16    17   ar
    23    16    22    1
    24    17    23    1
    25     9    11    1
    26     9    10    1
