@<TRIPOS>MOLECULE
GS-515-0.out
 16 15 0 0 0
SMALL
MULLIKEN_CHARGES
****
Gaussian 16 # wB97XD def2tzvp, opt=(calcfc, maxcycles=70, maxstep=10), freq=norama
@<TRIPOS>ATOM
      1 C           0.0052    0.1501   -0.0464 C.2     1  UNL1       -0.0490
      2 C           1.2700   -0.6587   -0.0662 C.2     1  UNL1        0.3245
      3 O           1.3007   -1.7827   -0.5470 O.2     1  UNL1       -0.4677
      4 C          -1.2296   -0.3517    0.0500 C.2     1  UNL1        0.0488
      5 C          -2.4620    0.5001    0.0427 C.3     1  UNL1       -0.3611
      6 H          -3.2549   -0.0123   -0.5046 H       1  UNL1        0.1443
      7 H          -2.8175    0.6339    1.0684 H       1  UNL1        0.1556
      8 H          -2.3042    1.4817   -0.3950 H       1  UNL1        0.1360
      9 C          -1.5114   -1.8168    0.2166 C.3     1  UNL1       -0.3503
     10 H          -2.3176   -1.9379    0.9430 H       1  UNL1        0.1384
     11 H          -1.8701   -2.2280   -0.7307 H       1  UNL1        0.1479
     12 H          -0.6467   -2.3919    0.5284 H       1  UNL1        0.1408
     13 CL          0.2534    1.8887   -0.1399 Cl      1  UNL1       -0.1289
     14 N           2.3569   -0.0836    0.4777 N.am    1  UNL1       -0.4449
     15 H           3.2260   -0.5876    0.4610 H       1  UNL1        0.2830
     16 H           2.3398    0.8438    0.8604 H       1  UNL1        0.2825
@<TRIPOS>BOND
     1    11     9    1
     2     3     2    2
     3     6     5    1
     4     8     5    1
     5    13     1    1
     6     2     1    1
     7     2    14   am
     8     1     4    2
     9     5     4    1
    10     5     7    1
    11     4     9    1
    12     9    12    1
    13     9    10    1
    14    15    14    1
    15    14    16    1
