@<TRIPOS>MOLECULE
GS-522-0.out
 24 24 0 0 0
SMALL
MULLIKEN_CHARGES
****
Gaussian 16 # wB97XD def2tzvp, opt=(calcfc, maxcycles=70, maxstep=10), freq=norama
@<TRIPOS>ATOM
      1 C           0.0093    0.1780   -0.0583 C.2     1  UNL1       -0.0139
      2 C           0.4081    1.6283    0.0885 C.2     1  UNL1        0.2159
      3 O           0.6003    2.3178   -0.8846 O.2     1  UNL1       -0.3638
      4 C           0.8956   -0.8040   -0.1627 C.2     1  UNL1        0.0203
      5 C           0.6347   -2.2588   -0.3622 C.3     1  UNL1       -0.3864
      6 H          -0.4254   -2.4397   -0.5298 H       1  UNL1        0.1555
      7 H           1.1946   -2.6267   -1.2231 H       1  UNL1        0.1527
      8 H           0.9544   -2.8312    0.5106 H       1  UNL1        0.1563
      9 BR          2.7627   -0.3835   -0.0623 Br      1  UNL1       -0.0905
     10 C          -1.4619   -0.0431   -0.0484 C.ar    1  UNL1        0.1537
     11 C          -2.0545   -0.8568    0.9147 C.ar    1  UNL1       -0.2479
     12 C          -3.4286   -1.0385    0.9310 C.ar    1  UNL1       -0.1259
     13 C          -4.2265   -0.4033   -0.0098 C.ar    1  UNL1       -0.1310
     14 C          -3.6445    0.4186   -0.9646 C.ar    1  UNL1       -0.1573
     15 C          -2.2708    0.6031   -0.9814 C.ar    1  UNL1       -0.1977
     16 H          -1.4338   -1.3445    1.6560 H       1  UNL1        0.1636
     17 H          -3.8766   -1.6747    1.6836 H       1  UNL1        0.1469
     18 H          -5.2995   -0.5449    0.0037 H       1  UNL1        0.1484
     19 H          -4.2616    0.9184   -1.7002 H       1  UNL1        0.1463
     20 H          -1.8197    1.2455   -1.7274 H       1  UNL1        0.1521
     21 C           0.4746    2.1458    1.4935 C.3     1  UNL1       -0.3588
     22 H           1.2281    1.5838    2.0497 H       1  UNL1        0.1561
     23 H           0.7137    3.2068    1.5030 H       1  UNL1        0.1430
     24 H          -0.4838    1.9706    1.9877 H       1  UNL1        0.1624
@<TRIPOS>BOND
     1    20    15    1
     2    19    14    1
     3     7     5    1
     4    15    14   ar
     5    15    10   ar
     6    14    13   ar
     7     3     2    2
     8     6     5    1
     9     5     4    1
    10     5     8    1
    11     4     9    1
    12     4     1    2
    13     1    10    1
    14     1     2    1
    15    10    11   ar
    16    13    18    1
    17    13    12   ar
    18     2    21    1
    19    11    12   ar
    20    11    16    1
    21    12    17    1
    22    21    23    1
    23    21    24    1
    24    21    22    1
