@<TRIPOS>MOLECULE
GS-505-0.out
 14 13 0 0 0
SMALL
MULLIKEN_CHARGES
****
Gaussian 16 # wB97XD def2tzvp, opt=(calcfc, maxcycles=70, maxstep=10), freq=norama
@<TRIPOS>ATOM
      1 C           0.2795   -0.2438   -0.0149 C.2     1  UNL1       -0.0428
      2 C           0.6640   -1.6662   -0.0530 C.2     1  UNL1        0.1327
      3 O           1.7862   -2.0891    0.0961 O.2     1  UNL1       -0.3714
      4 C           1.1146    0.8089   -0.0085 C.2     1  UNL1        0.0729
      5 C           0.6645    2.2312    0.0414 C.3     1  UNL1       -0.3570
      6 H           1.2279    2.7567    0.8158 H       1  UNL1        0.1554
      7 H           0.9124    2.7149   -0.9076 H       1  UNL1        0.1595
      8 H          -0.3985    2.3471    0.2287 H       1  UNL1        0.1385
      9 C           2.6061    0.6356   -0.0569 C.3     1  UNL1       -0.3413
     10 H           3.0735    1.5700   -0.3651 H       1  UNL1        0.1419
     11 H           2.9816    0.3815    0.9372 H       1  UNL1        0.1533
     12 H           2.9100   -0.1656   -0.7255 H       1  UNL1        0.1471
     13 BR         -1.6226   -0.0322    0.0007 Br      1  UNL1       -0.1055
     14 H          -0.1777   -2.3595   -0.2255 H       1  UNL1        0.1169
@<TRIPOS>BOND
     1     7     5    1
     2    12     9    1
     3    10     9    1
     4    14     2    1
     5     9     4    1
     6     9    11    1
     7     2     1    1
     8     2     3    2
     9     1     4    2
    10     1    13    1
    11     4     5    1
    12     5     8    1
    13     5     6    1
