@<TRIPOS>MOLECULE
GS-518-1.out
 22 21 0 0 0
SMALL
MULLIKEN_CHARGES
****
Gaussian 16 # wb97xd def2tzvp opt=(calcfc, maxcycles=100, maxstep=10) freq=noraman
@<TRIPOS>ATOM
      1 C           0.6416   -0.2628   -0.1347 C.2     1  UNL1       -0.0317
      2 C          -0.7981   -0.3009   -0.5789 C.2     1  UNL1        0.2847
      3 O          -1.0652   -0.7249   -1.6981 O.2     1  UNL1       -0.4846
      4 C           1.4249    0.8091   -0.1615 C.2     1  UNL1       -0.0311
      5 C           2.8792    0.8049    0.1885 C.3     1  UNL1       -0.3513
      6 H           3.4634    1.1721   -0.6587 H       1  UNL1        0.1421
      7 H           3.0584    1.4918    1.0194 H       1  UNL1        0.1417
      8 H           3.2465   -0.1798    0.4651 H       1  UNL1        0.1297
      9 C           0.8685    2.1490   -0.5513 C.3     1  UNL1       -0.3481
     10 H           0.9854    2.8514    0.2777 H       1  UNL1        0.1429
     11 H           1.4324    2.5519   -1.3957 H       1  UNL1        0.1476
     12 H          -0.1839    2.1162   -0.8269 H       1  UNL1        0.1440
     13 CL          1.2089   -1.8545    0.3179 Cl      1  UNL1       -0.1148
     14 N          -1.7267    0.1322    0.2929 N.am    1  UNL1       -0.1094
     15 C          -3.1237    0.1617   -0.0935 C.3     1  UNL1       -0.2762
     16 C          -1.4499    0.5954    1.6384 C.3     1  UNL1       -0.2930
     17 H          -3.2160   -0.1105   -1.1397 H       1  UNL1        0.1509
     18 H          -3.6984   -0.5394    0.5158 H       1  UNL1        0.1459
     19 H          -3.5247    1.1655    0.0598 H       1  UNL1        0.1409
     20 H          -0.4128    0.4183    1.9039 H       1  UNL1        0.1702
     21 H          -1.6597    1.6644    1.7224 H       1  UNL1        0.1501
     22 H          -2.0889    0.0606    2.3434 H       1  UNL1        0.1495
@<TRIPOS>BOND
     1     3     2    2
     2    11     9    1
     3    17    15    1
     4    12     9    1
     5     6     5    1
     6     2     1    1
     7     2    14   am
     8     9     4    1
     9     9    10    1
    10     4     1    2
    11     4     5    1
    12     1    13    1
    13    15    19    1
    14    15    14    1
    15    15    18    1
    16     5     8    1
    17     5     7    1
    18    14    16    1
    19    16    21    1
    20    16    20    1
    21    16    22    1
