@<TRIPOS>MOLECULE
GS-591-0.out
 23 23 0 0 0
SMALL
MULLIKEN_CHARGES
****
Gaussian 16 # wB97XD def2tzvp, opt=(calcfc, maxcycles=70, maxstep=10), freq=norama
@<TRIPOS>ATOM
      1 C          -1.5073    0.0219    0.1024 C.2     1  UNL1       -0.1607
      2 C          -0.1022   -0.1638    0.6200 C.2     1  UNL1        0.4262
      3 O           0.0977   -0.4793    1.7762 O.2     1  UNL1       -0.4392
      4 C          -2.1181    1.1908   -0.0426 C.2     1  UNL1        0.0657
      5 C          -3.5102    1.4673   -0.4870 C.3     1  UNL1       -0.3456
      6 H          -4.0356    0.5475   -0.7306 H       1  UNL1        0.1449
      7 H          -4.0535    1.9898    0.3018 H       1  UNL1        0.1568
      8 H          -3.4955    2.1129   -1.3663 H       1  UNL1        0.1563
      9 CL         -1.2057    2.6295    0.3470 Cl      1  UNL1       -0.0815
     10 BR         -2.3782   -1.6215   -0.2446 Br      1  UNL1       -0.0277
     11 N           0.8438    0.0251   -0.3274 N.am    1  UNL1       -0.2622
     12 C           2.2447   -0.0505   -0.2119 C.ar    1  UNL1        0.3046
     13 C           2.9892    0.2807   -1.3439 C.ar    1  UNL1       -0.2938
     14 C           4.3705    0.2273   -1.3102 C.ar    1  UNL1       -0.0985
     15 C           5.0290   -0.1558   -0.1493 C.ar    1  UNL1       -0.1814
     16 C           4.2863   -0.4848    0.9729 C.ar    1  UNL1       -0.1099
     17 C           2.8990   -0.4371    0.9547 C.ar    1  UNL1       -0.2884
     18 H           0.4996    0.2925   -1.2359 H       1  UNL1        0.2807
     19 H           2.4820    0.5814   -2.2531 H       1  UNL1        0.1480
     20 H           4.9339    0.4877   -2.1970 H       1  UNL1        0.1482
     21 H           6.1100   -0.1969   -0.1223 H       1  UNL1        0.1453
     22 H           4.7873   -0.7861    1.8842 H       1  UNL1        0.1466
     23 H           2.3300   -0.6953    1.8327 H       1  UNL1        0.1655
@<TRIPOS>BOND
     1    19    13    1
     2    20    14    1
     3     8     5    1
     4    13    14   ar
     5    13    12   ar
     6    14    15   ar
     7    18    11    1
     8     6     5    1
     9     5     4    1
    10     5     7    1
    11    11    12    1
    12    11     2   am
    13    10     1    1
    14    12    17   ar
    15    15    21    1
    16    15    16   ar
    17     4     1    2
    18     4     9    1
    19     1     2    1
    20     2     3    2
    21    17    16   ar
    22    17    23    1
    23    16    22    1
