@<TRIPOS>MOLECULE
GS-511-1.out
 26 26 0 0 0
SMALL
MULLIKEN_CHARGES
****
Gaussian 16 # wB97XD def2tzvp, opt=(calcfc, maxcycles=70, maxstep=1), freq=noraman
@<TRIPOS>ATOM
      1 C           1.5576    0.2264    0.1674 C.2     1  UNL1       -0.1221
      2 C           0.1755   -0.2034    0.5808 C.2     1  UNL1        0.4074
      3 O          -0.0124   -0.8960    1.5636 O.2     1  UNL1       -0.4502
      4 C           2.0302    1.4673    0.2466 C.2     1  UNL1       -0.0078
      5 C           3.4199    1.8742   -0.1303 C.3     1  UNL1       -0.3502
      6 H           3.9706    2.1675    0.7671 H       1  UNL1        0.1500
      7 H           3.9732    1.0873   -0.6355 H       1  UNL1        0.1363
      8 H           3.3795    2.7514   -0.7795 H       1  UNL1        0.1415
      9 C           1.1773    2.5923    0.7673 C.3     1  UNL1       -0.3632
     10 H           0.9896    3.3140   -0.0313 H       1  UNL1        0.1525
     11 H           0.2211    2.2672    1.1707 H       1  UNL1        0.1445
     12 H           1.7205    3.1192    1.5544 H       1  UNL1        0.1456
     13 BR          2.5962   -1.2605   -0.4166 Br      1  UNL1       -0.0800
     14 N          -0.7940    0.2441   -0.2555 N.am    1  UNL1       -0.2633
     15 C          -2.1886    0.0787   -0.1757 C.ar    1  UNL1        0.3114
     16 C          -2.9542    0.6977   -1.1643 C.ar    1  UNL1       -0.2984
     17 C          -4.3320    0.5824   -1.1555 C.ar    1  UNL1       -0.0976
     18 C          -4.9679   -0.1502   -0.1619 C.ar    1  UNL1       -0.1827
     19 C          -4.2052   -0.7641    0.8183 C.ar    1  UNL1       -0.1090
     20 C          -2.8209   -0.6584    0.8225 C.ar    1  UNL1       -0.2933
     21 H          -0.4684    0.7921   -1.0354 H       1  UNL1        0.2790
     22 H          -2.4649    1.2716   -1.9425 H       1  UNL1        0.1469
     23 H          -4.9107    1.0691   -1.9301 H       1  UNL1        0.1475
     24 H          -6.0462   -0.2403   -0.1542 H       1  UNL1        0.1447
     25 H          -4.6880   -1.3389    1.5986 H       1  UNL1        0.1459
     26 H          -2.2359   -1.1407    1.5882 H       1  UNL1        0.1646
@<TRIPOS>BOND
     1    22    16    1
     2    23    17    1
     3    16    17   ar
     4    16    15   ar
     5    17    18   ar
     6    21    14    1
     7     8     5    1
     8     7     5    1
     9    13     1    1
    10    14    15    1
    11    14     2   am
    12    15    20   ar
    13    18    24    1
    14    18    19   ar
    15     5     4    1
    16     5     6    1
    17    10     9    1
    18     1     4    2
    19     1     2    1
    20     4     9    1
    21     2     3    2
    22     9    11    1
    23     9    12    1
    24    19    20   ar
    25    19    25    1
    26    20    26    1
