@<TRIPOS>MOLECULE
GS-529-0.out
 11 10 0 0 0
SMALL
MULLIKEN_CHARGES
****
Gaussian 16 # wB97XD def2tzvp, opt=(calcfc, maxcycles=70, maxstep=10), freq=norama
@<TRIPOS>ATOM
      1 C          -1.2652    0.7767   -0.0000 C.2     1  UNL1       -0.2301
      2 C          -2.0617   -0.4487   -0.0000 C.2     1  UNL1        0.1832
      3 O          -3.2731   -0.4429    0.0000 O.2     1  UNL1       -0.3806
      4 C           0.0654    0.8612    0.0000 C.2     1  UNL1        0.0751
      5 C           0.8333    2.1356    0.0000 C.3     1  UNL1       -0.3338
      6 H           0.1539    2.9866    0.0000 H       1  UNL1        0.1479
      7 H           1.4766    2.1899    0.8799 H       1  UNL1        0.1578
      8 H           1.4766    2.1899   -0.8799 H       1  UNL1        0.1578
      9 BR          1.1709   -0.6879    0.0000 Br      1  UNL1       -0.0553
     10 H          -1.8274    1.7045   -0.0000 H       1  UNL1        0.1667
     11 H          -1.5070   -1.4010   -0.0000 H       1  UNL1        0.1113
@<TRIPOS>BOND
     1     8     5    1
     2     1     2    1
     3     1     4    2
     4     1    10    1
     5     2     3    2
     6     2    11    1
     7     4     5    1
     8     4     9    1
     9     5     6    1
    10     5     7    1
