@<TRIPOS>MOLECULE
GS-538-0.out
 17 16 0 0 0
SMALL
MULLIKEN_CHARGES
****
Gaussian 16 # wB97XD def2tzvp, opt=(calcfc, maxcycles=70, maxstep=10), freq=norama
@<TRIPOS>ATOM
      1 C          -0.9567    0.7195   -0.0270 C.2     1  UNL1       -0.0493
      2 C          -1.5694   -0.6533   -0.1624 C.2     1  UNL1        0.2454
      3 O          -1.8922   -1.0700   -1.2503 O.2     1  UNL1       -0.3729
      4 C           0.3540    0.9063    0.0354 C.2     1  UNL1       -0.0033
      5 C           1.1159    2.1840    0.1463 C.3     1  UNL1       -0.3452
      6 H           0.4483    3.0411    0.1989 H       1  UNL1        0.1282
      7 H           1.7407    2.1776    1.0410 H       1  UNL1        0.1484
      8 H           1.7733    2.3120   -0.7153 H       1  UNL1        0.1486
      9 BR          1.5131   -0.6268   -0.0412 Br      1  UNL1       -0.1120
     10 C          -1.9894    1.8119   -0.0030 C.3     1  UNL1       -0.3101
     11 H          -2.7043    1.6394    0.8050 H       1  UNL1        0.1432
     12 H          -1.5560    2.7985    0.1333 H       1  UNL1        0.1272
     13 H          -2.5501    1.8061   -0.9402 H       1  UNL1        0.1496
     14 C          -1.8340   -1.3989    1.1121 C.3     1  UNL1       -0.3491
     15 H          -0.9075   -1.5129    1.6769 H       1  UNL1        0.1558
     16 H          -2.5151   -0.8098    1.7314 H       1  UNL1        0.1560
     17 H          -2.2733   -2.3718    0.9032 H       1  UNL1        0.1394
@<TRIPOS>BOND
     1     3     2    2
     2    13    10    1
     3     8     5    1
     4     2     1    1
     5     2    14    1
     6     9     4    1
     7     1    10    1
     8     1     4    2
     9    10    12    1
    10    10    11    1
    11     4     5    1
    12     5     6    1
    13     5     7    1
    14    17    14    1
    15    14    15    1
    16    14    16    1
