@<TRIPOS>MOLECULE
GS-585-0.out
 11 10 0 0 0
SMALL
MULLIKEN_CHARGES
****
Gaussian 16 # wB97XD def2tzvp, opt=(calcfc, maxcycles=70, maxstep=10), freq=norama
@<TRIPOS>ATOM
      1 C          -0.0487    0.2908   -0.0000 C.2     1  UNL1       -0.0982
      2 C          -0.0529    1.7662    0.0000 C.2     1  UNL1        0.1417
      3 O           0.9421    2.4464    0.0000 O.2     1  UNL1       -0.3539
      4 C          -1.1511   -0.4723    0.0000 C.2     1  UNL1        0.1426
      5 C          -1.2358   -1.9558    0.0000 C.3     1  UNL1       -0.3304
      6 H          -0.2522   -2.4151   -0.0000 H       1  UNL1        0.1496
      7 H          -1.7899   -2.2865    0.8801 H       1  UNL1        0.1624
      8 H          -1.7899   -2.2865   -0.8801 H       1  UNL1        0.1624
      9 CL         -2.7193    0.2811   -0.0000 Cl      1  UNL1       -0.0577
     10 BR          1.6716   -0.4959   -0.0000 Br      1  UNL1       -0.0464
     11 H          -1.0528    2.2217    0.0000 H       1  UNL1        0.1279
@<TRIPOS>BOND
     1     8     5    1
     2     1     2    1
     3     1     4    2
     4     1    10    1
     5     2     3    2
     6     2    11    1
     7     4     9    1
     8     4     5    1
     9     6     5    1
    10     5     7    1
