@<TRIPOS>MOLECULE
GS-528-0.out
 31 32 0 0 0
SMALL
MULLIKEN_CHARGES
****
Gaussian 16 # wB97XD def2tzvp, opt=(calcfc, maxcycles=70, maxstep=10), freq=norama
@<TRIPOS>ATOM
      1 C           0.5480    0.5730    0.2850 C.2     1  UNL1       -0.0349
      2 C          -0.4620   -0.2326    1.0675 C.2     1  UNL1        0.3270
      3 O          -0.5430   -0.0905    2.2681 O.2     1  UNL1       -0.3764
      4 C           0.2758    1.7775   -0.2028 C.2     1  UNL1        0.0345
      5 C           1.1987    2.7172   -0.9019 C.3     1  UNL1       -0.3878
      6 H           2.2233    2.3524   -0.8614 H       1  UNL1        0.1579
      7 H           0.9096    2.8355   -1.9479 H       1  UNL1        0.1579
      8 H           1.1571    3.7013   -0.4336 H       1  UNL1        0.1541
      9 BR         -1.5017    2.4671   -0.0219 Br      1  UNL1       -0.0876
     10 C           1.8656   -0.1000    0.1289 C.ar    1  UNL1        0.1603
     11 C           2.5389   -0.5900    1.2467 C.ar    1  UNL1       -0.2269
     12 C           3.7559   -1.2380    1.1042 C.ar    1  UNL1       -0.1529
     13 C           4.3096   -1.4147   -0.1558 C.ar    1  UNL1       -0.1303
     14 C           3.6391   -0.9416   -1.2745 C.ar    1  UNL1       -0.1259
     15 C           2.4231   -0.2919   -1.1338 C.ar    1  UNL1       -0.2772
     16 H           2.1109   -0.4547    2.2319 H       1  UNL1        0.1526
     17 H           4.2728   -1.6058    1.9813 H       1  UNL1        0.1460
     18 H           5.2587   -1.9235   -0.2659 H       1  UNL1        0.1480
     19 H           4.0604   -1.0827   -2.2616 H       1  UNL1        0.1463
     20 H           1.8979    0.0651   -2.0108 H       1  UNL1        0.1773
     21 C          -1.2769   -1.2348    0.3312 C.ar    1  UNL1        0.0510
     22 C          -1.2194   -1.3390   -1.0565 C.ar    1  UNL1       -0.1592
     23 C          -1.9927   -2.2802   -1.7166 C.ar    1  UNL1       -0.1651
     24 C          -2.8247   -3.1221   -0.9931 C.ar    1  UNL1       -0.1160
     25 C          -2.8866   -3.0231    0.3921 C.ar    1  UNL1       -0.1225
     26 C          -2.1169   -2.0831    1.0518 C.ar    1  UNL1       -0.2224
     27 H          -0.5754   -0.6799   -1.6238 H       1  UNL1        0.1720
     28 H          -1.9463   -2.3562   -2.7950 H       1  UNL1        0.1486
     29 H          -3.4279   -3.8584   -1.5089 H       1  UNL1        0.1527
     30 H          -3.5363   -3.6813    0.9541 H       1  UNL1        0.1505
     31 H          -2.1548   -1.9949    2.1295 H       1  UNL1        0.1484
@<TRIPOS>BOND
     1    28    23    1
     2    19    14    1
     3    20    15    1
     4     7     5    1
     5    23    22   ar
     6    23    24   ar
     7    27    22    1
     8    29    24    1
     9    14    15   ar
    10    14    13   ar
    11    15    10   ar
    12    22    21   ar
    13    24    25   ar
    14     5     6    1
    15     5     8    1
    16     5     4    1
    17    18    13    1
    18     4     9    1
    19     4     1    2
    20    13    12   ar
    21    10     1    1
    22    10    11   ar
    23     1     2    1
    24    21    26   ar
    25    21     2    1
    26    25    30    1
    27    25    26   ar
    28    26    31    1
    29     2     3    2
    30    12    11   ar
    31    12    17    1
    32    11    16    1
