@<TRIPOS>MOLECULE
GS-593-0.out
 11 10 0 0 0
SMALL
MULLIKEN_CHARGES
****
Gaussian 16 # wB97XD def2tzvp, opt=(calcfc, maxcycles=70, maxstep=10), freq=norama
@<TRIPOS>ATOM
      1 C          -0.4384   -0.0256   -0.0000 C.2     1  UNL1       -0.0277
      2 C          -0.8728   -1.4361   -0.0000 C.2     1  UNL1        0.1394
      3 O          -2.0276   -1.7811    0.0000 O.2     1  UNL1       -0.3534
      4 C           0.8390    0.3826    0.0000 C.2     1  UNL1        0.1132
      5 C           1.3352    1.7829    0.0000 C.3     1  UNL1       -0.3320
      6 H           0.5170    2.4965    0.0000 H       1  UNL1        0.1453
      7 H           1.9592    1.9473    0.8802 H       1  UNL1        0.1622
      8 H           1.9592    1.9473   -0.8802 H       1  UNL1        0.1622
      9 CL          2.1195   -0.7906   -0.0000 Cl      1  UNL1       -0.0561
     10 CL         -1.7275    1.1321   -0.0000 Cl      1  UNL1       -0.0789
     11 H          -0.0569   -2.1715   -0.0000 H       1  UNL1        0.1258
@<TRIPOS>BOND
     1     8     5    1
     2     1     2    1
     3     1     4    2
     4     1    10    1
     5     2     3    2
     6     2    11    1
     7     4     5    1
     8     4     9    1
     9     5     6    1
    10     5     7    1
