@<TRIPOS>MOLECULE
GS-51-0.out
 20 20 0 0 0
SMALL
MULLIKEN_CHARGES
****
Gaussian 16 # wb97xd def2tzvp opt=(calcfc, maxcycles=100, maxstep=10) freq=noraman
@<TRIPOS>ATOM
      1 C           1.5683    0.3972    0.0001 C.2     1  UNL1       -0.1400
      2 C           2.9785   -0.0705    0.0000 C.2     1  UNL1        0.3243
      3 O           3.2933   -1.2551   -0.0002 O.2     1  UNL1       -0.4894
      4 C           0.5637   -0.4767   -0.0001 C.2     1  UNL1       -0.2111
      5 C          -0.8719   -0.1837   -0.0001 C.ar    1  UNL1        0.2487
      6 C          -1.3855    1.1163   -0.0002 C.ar    1  UNL1       -0.2319
      7 C          -2.7514    1.3342   -0.0001 C.ar    1  UNL1       -0.1344
      8 C          -3.6334    0.2598    0.0001 C.ar    1  UNL1       -0.1389
      9 C          -3.1386   -1.0352    0.0002 C.ar    1  UNL1       -0.1385
     10 C          -1.7693   -1.2526    0.0001 C.ar    1  UNL1       -0.2204
     11 H          -0.7169    1.9675   -0.0004 H       1  UNL1        0.1390
     12 H          -3.1328    2.3474   -0.0002 H       1  UNL1        0.1467
     13 H          -4.7017    0.4347    0.0002 H       1  UNL1        0.1488
     14 H          -3.8180   -1.8779    0.0003 H       1  UNL1        0.1465
     15 H          -1.3856   -2.2660    0.0001 H       1  UNL1        0.1447
     16 H           0.8306   -1.5298   -0.0003 H       1  UNL1        0.1370
     17 H           1.3979    1.4671    0.0003 H       1  UNL1        0.1522
     18 N           3.8997    0.9148    0.0002 N.am    1  UNL1       -0.4480
     19 H           4.8758    0.6759    0.0002 H       1  UNL1        0.2759
     20 H           3.6433    1.8851    0.0003 H       1  UNL1        0.2888
@<TRIPOS>BOND
     1    11     6    1
     2    16     4    1
     3     6     5   ar
     4     6     7   ar
     5    12     7    1
     6     3     2    2
     7     4     5    1
     8     4     1    2
     9     5    10   ar
    10     7     8   ar
    11     2     1    1
    12     2    18   am
    13    10    15    1
    14    10     9   ar
    15     1    17    1
    16     8     9   ar
    17     8    13    1
    18    19    18    1
    19     9    14    1
    20    18    20    1
