@<TRIPOS>MOLECULE
GS-536-0.out
 21 21 0 0 0
SMALL
MULLIKEN_CHARGES
****
Gaussian 16 # wB97XD def2tzvp, opt=(calcfc, maxcycles=70, maxstep=10), freq=norama
@<TRIPOS>ATOM
      1 C           1.0336    1.3643    0.7250 C.2     1  UNL1       -0.2367
      2 C          -0.2325    1.5827   -0.0401 C.2     1  UNL1        0.3764
      3 O          -0.3245    2.5696   -0.7407 O.2     1  UNL1       -0.3842
      4 C           1.9229    0.3985    0.5578 C.2     1  UNL1        0.0118
      5 C           3.2172    0.2756    1.2868 C.3     1  UNL1       -0.3397
      6 H           3.3163    1.0838    2.0107 H       1  UNL1        0.1441
      7 H           3.2687   -0.6794    1.8124 H       1  UNL1        0.1511
      8 H           4.0573    0.3167    0.5919 H       1  UNL1        0.1517
      9 BR          1.6370   -0.9743   -0.7392 Br      1  UNL1       -0.0797
     10 H           1.2748    2.1514    1.4328 H       1  UNL1        0.1829
     11 C          -1.3629    0.6282    0.1170 C.ar    1  UNL1        0.0344
     12 C          -1.3946   -0.2946    1.1596 C.ar    1  UNL1       -0.1972
     13 C          -2.4772   -1.1475    1.3013 C.ar    1  UNL1       -0.1311
     14 C          -3.5263   -1.0913    0.3953 C.ar    1  UNL1       -0.1289
     15 C          -3.4986   -0.1750   -0.6496 C.ar    1  UNL1       -0.1209
     16 C          -2.4250    0.6862   -0.7841 C.ar    1  UNL1       -0.2053
     17 H          -0.5745   -0.3422    1.8642 H       1  UNL1        0.1700
     18 H          -2.5010   -1.8580    2.1172 H       1  UNL1        0.1501
     19 H          -4.3687   -1.7630    0.5020 H       1  UNL1        0.1522
     20 H          -4.3167   -0.1345   -1.3571 H       1  UNL1        0.1501
     21 H          -2.3933    1.4072   -1.5903 H       1  UNL1        0.1490
@<TRIPOS>BOND
     1    21    16    1
     2    20    15    1
     3    16    15   ar
     4    16    11   ar
     5     3     2    2
     6     9     4    1
     7    15    14   ar
     8     2    11    1
     9     2     1    1
    10    11    12   ar
    11    14    19    1
    12    14    13   ar
    13     4     1    2
    14     4     5    1
    15     8     5    1
    16     1    10    1
    17    12    13   ar
    18    12    17    1
    19     5     7    1
    20     5     6    1
    21    13    18    1
