@<TRIPOS>MOLECULE
GS-516-0.out
 18 17 0 0 0
SMALL
MULLIKEN_CHARGES
****
Gaussian 16 # wB97XD def2tzvp, opt=(calcfc, maxcycles=70, maxstep=10), freq=norama
@<TRIPOS>ATOM
      1 C           0.4056    0.1862    0.0626 C.2     1  UNL1       -0.0781
      2 C          -0.9471   -0.4308    0.1482 C.2     1  UNL1        0.4354
      3 O          -1.1588   -1.5340    0.5922 O.2     1  UNL1       -0.4224
      4 C           1.5448   -0.5051   -0.0652 C.2     1  UNL1        0.0658
      5 C           2.8902    0.1486   -0.1239 C.3     1  UNL1       -0.3663
      6 H           3.6114   -0.4573    0.4270 H       1  UNL1        0.1472
      7 H           3.2305    0.1817   -1.1628 H       1  UNL1        0.1582
      8 H           2.8954    1.1601    0.2715 H       1  UNL1        0.1353
      9 C           1.5947   -1.9993   -0.1969 C.3     1  UNL1       -0.3580
     10 H           2.3813   -2.2635   -0.9057 H       1  UNL1        0.1422
     11 H           1.8687   -2.4390    0.7657 H       1  UNL1        0.1519
     12 H           0.6558   -2.4406   -0.5127 H       1  UNL1        0.1419
     13 CL          0.4159    1.9355    0.1304 Cl      1  UNL1       -0.1135
     14 O          -1.9045    0.3628   -0.3176 O.3     1  UNL1       -0.2739
     15 C          -3.2376   -0.1483   -0.2528 C.3     1  UNL1       -0.1974
     16 H          -3.8711    0.6358   -0.6561 H       1  UNL1        0.1490
     17 H          -3.3273   -1.0540   -0.8511 H       1  UNL1        0.1411
     18 H          -3.5117   -0.3646    0.7790 H       1  UNL1        0.1414
@<TRIPOS>BOND
     1     7     5    1
     2    10     9    1
     3    17    15    1
     4    16    15    1
     5    12     9    1
     6    14    15    1
     7    14     2    1
     8    15    18    1
     9     9     4    1
    10     9    11    1
    11     5     4    1
    12     5     8    1
    13     5     6    1
    14     4     1    2
    15     1    13    1
    16     1     2    1
    17     2     3    2
