@<TRIPOS>MOLECULE
GS-557-0.out
 16 15 0 0 0
SMALL
MULLIKEN_CHARGES
****
Gaussian 16 # wB97XD def2tzvp, opt=(calcfc, maxcycles=70, maxstep=10), freq=norama
@<TRIPOS>ATOM
      1 C          -0.3415    0.8755    0.0308 C.2     1  UNL1       -0.0185
      2 C          -1.3698   -0.1848    0.3435 C.2     1  UNL1        0.3663
      3 O          -1.7929   -0.3292    1.4793 O.2     1  UNL1       -0.4625
      4 C           0.9649    0.6870   -0.0960 C.2     1  UNL1       -0.0307
      5 C           2.0202    1.7069   -0.3435 C.3     1  UNL1       -0.3489
      6 H           1.5865    2.6997   -0.4387 H       1  UNL1        0.1417
      7 H           2.7378    1.7110    0.4784 H       1  UNL1        0.1566
      8 H           2.5640    1.4684   -1.2588 H       1  UNL1        0.1563
      9 BR          1.6273   -1.0907    0.0778 Br      1  UNL1       -0.0556
     10 CL         -1.0431    2.4628   -0.0721 Cl      1  UNL1       -0.0759
     11 N          -1.7840   -0.8951   -0.7095 N.am    1  UNL1       -0.3010
     12 C          -2.7567   -1.9595   -0.5816 C.3     1  UNL1       -0.2512
     13 H          -1.3567   -0.7256   -1.6033 H       1  UNL1        0.2870
     14 H          -2.9966   -2.3309   -1.5742 H       1  UNL1        0.1521
     15 H          -2.3616   -2.7790    0.0210 H       1  UNL1        0.1419
     16 H          -3.6663   -1.5880   -0.1099 H       1  UNL1        0.1424
@<TRIPOS>BOND
     1    13    11    1
     2    14    12    1
     3     8     5    1
     4    11    12    1
     5    11     2   am
     6    12    16    1
     7    12    15    1
     8     6     5    1
     9     5     4    1
    10     5     7    1
    11     4     1    2
    12     4     9    1
    13    10     1    1
    14     1     2    1
    15     2     3    2
