@<TRIPOS>MOLECULE
GS-540-0.out
 18 17 0 0 0
SMALL
MULLIKEN_CHARGES
****
Gaussian 16 # wB97XD def2tzvp, opt=(calcfc, maxcycles=70, maxstep=10), freq=norama
@<TRIPOS>ATOM
      1 C          -0.2432    1.1962    0.0266 C.2     1  UNL1       -0.0814
      2 C          -1.3837    0.2692    0.3256 C.2     1  UNL1        0.4299
      3 O          -1.8265    0.0906    1.4322 O.2     1  UNL1       -0.4076
      4 C           0.9982    0.7459   -0.0980 C.2     1  UNL1        0.0052
      5 C           2.2470    1.5203   -0.3519 C.3     1  UNL1       -0.3506
      6 H           2.0433    2.5840   -0.4507 H       1  UNL1        0.1285
      7 H           2.9553    1.3784    0.4660 H       1  UNL1        0.1504
      8 H           2.7270    1.1743   -1.2687 H       1  UNL1        0.1507
      9 BR          1.3254   -1.1371    0.0721 Br      1  UNL1       -0.1006
     10 C          -0.6643    2.6362   -0.0592 C.3     1  UNL1       -0.3219
     11 H          -1.1398    2.9378    0.8764 H       1  UNL1        0.1495
     12 H           0.1692    3.3050   -0.2520 H       1  UNL1        0.1264
     13 H          -1.3994    2.7638   -0.8569 H       1  UNL1        0.1493
     14 O          -1.8842   -0.2738   -0.7762 O.3     1  UNL1       -0.2635
     15 C          -2.9967   -1.1589   -0.6032 C.3     1  UNL1       -0.2010
     16 H          -3.2658   -1.4900   -1.6013 H       1  UNL1        0.1506
     17 H          -2.7081   -2.0086    0.0142 H       1  UNL1        0.1428
     18 H          -3.8299   -0.6339   -0.1383 H       1  UNL1        0.1433
@<TRIPOS>BOND
     1    16    15    1
     2     8     5    1
     3    13    10    1
     4    14    15    1
     5    14     2    1
     6    15    18    1
     7    15    17    1
     8     6     5    1
     9     5     4    1
    10     5     7    1
    11    12    10    1
    12     4     1    2
    13     4     9    1
    14    10     1    1
    15    10    11    1
    16     1     2    1
    17     2     3    2
