@<TRIPOS>MOLECULE
GS-541-0.out
 19 18 0 0 0
SMALL
MULLIKEN_CHARGES
****
Gaussian 16 # wB97XD def2tzvp, opt=(calcfc, maxcycles=70, maxstep=10), freq=norama
@<TRIPOS>ATOM
      1 C           0.2136    1.2077    0.0062 C.2     1  UNL1       -0.1046
      2 C           1.3936    0.3262    0.3256 C.2     1  UNL1        0.3791
      3 O           1.8419    0.2576    1.4630 O.2     1  UNL1       -0.4844
      4 C          -1.0168    0.7254   -0.1141 C.2     1  UNL1        0.0030
      5 C          -2.2864    1.4631   -0.3802 C.3     1  UNL1       -0.3473
      6 H          -2.1093    2.5281   -0.5105 H       1  UNL1        0.1271
      7 H          -2.7647    1.0809   -1.2834 H       1  UNL1        0.1485
      8 H          -2.9863    1.3277    0.4462 H       1  UNL1        0.1489
      9 BR         -1.3138   -1.1625    0.0943 Br      1  UNL1       -0.1101
     10 C           0.5817    2.6618   -0.0911 C.3     1  UNL1       -0.3237
     11 H           1.3043    2.8113   -0.8968 H       1  UNL1        0.1449
     12 H          -0.2733    3.3061   -0.2737 H       1  UNL1        0.1233
     13 H           1.0598    2.9785    0.8381 H       1  UNL1        0.1474
     14 N           1.9434   -0.3029   -0.7214 N.am    1  UNL1       -0.3053
     15 C           3.0804   -1.1863   -0.5815 C.3     1  UNL1       -0.2516
     16 H           1.4863   -0.2319   -1.6133 H       1  UNL1        0.2805
     17 H           2.8227   -2.0704    0.0051 H       1  UNL1        0.1371
     18 H           3.4023   -1.4992   -1.5714 H       1  UNL1        0.1489
     19 H           3.9036   -0.6711   -0.0867 H       1  UNL1        0.1384
@<TRIPOS>BOND
     1    16    14    1
     2    18    15    1
     3     7     5    1
     4    11    10    1
     5    14    15    1
     6    14     2   am
     7    15    19    1
     8    15    17    1
     9     6     5    1
    10     5     4    1
    11     5     8    1
    12    12    10    1
    13     4     1    2
    14     4     9    1
    15    10     1    1
    16    10    13    1
    17     1     2    1
    18     2     3    2
