@<TRIPOS>MOLECULE
GS-525-1.out
 26 26 0 0 0
SMALL
MULLIKEN_CHARGES
****
Gaussian 16 # wB97XD def2tzvp, opt=(calcfc, maxcycles=70, maxstep=1), freq=noraman
@<TRIPOS>ATOM
      1 C          -0.0651   -0.0545   -0.1177 C.2     1  UNL1       -0.0786
      2 C           0.4537    1.3531   -0.2829 C.2     1  UNL1        0.3252
      3 O           0.6022    1.8551   -1.3890 O.2     1  UNL1       -0.4720
      4 C           0.7431   -1.1071   -0.0554 C.2     1  UNL1        0.0298
      5 C           0.3645   -2.5485    0.0092 C.3     1  UNL1       -0.3874
      6 H          -0.7102   -2.6705   -0.1102 H       1  UNL1        0.1551
      7 H           0.8719   -3.1058   -0.7794 H       1  UNL1        0.1527
      8 H           0.6623   -2.9828    0.9654 H       1  UNL1        0.1565
      9 BR          2.6387   -0.8357   -0.0721 Br      1  UNL1       -0.0885
     10 C          -1.5477   -0.1626   -0.0581 C.ar    1  UNL1        0.1814
     11 C          -2.1745   -0.7539    1.0366 C.ar    1  UNL1       -0.2535
     12 C          -3.5575   -0.8305    1.0986 C.ar    1  UNL1       -0.1321
     13 C          -4.3304   -0.3114    0.0703 C.ar    1  UNL1       -0.1316
     14 C          -3.7135    0.2891   -1.0184 C.ar    1  UNL1       -0.1541
     15 C          -2.3312    0.3679   -1.0816 C.ar    1  UNL1       -0.2154
     16 H          -1.5734   -1.1497    1.8457 H       1  UNL1        0.1631
     17 H          -4.0310   -1.2931    1.9552 H       1  UNL1        0.1457
     18 H          -5.4102   -0.3709    0.1187 H       1  UNL1        0.1474
     19 H          -4.3110    0.6974   -1.8236 H       1  UNL1        0.1452
     20 H          -1.8520    0.8385   -1.9307 H       1  UNL1        0.1498
     21 N           0.6769    2.0099    0.8619 N.am    1  UNL1       -0.2894
     22 C           1.1628    3.3725    0.8880 C.3     1  UNL1       -0.2584
     23 H           0.5553    1.5158    1.7283 H       1  UNL1        0.2821
     24 H           1.2236    3.6997    1.9226 H       1  UNL1        0.1494
     25 H           2.1525    3.4434    0.4336 H       1  UNL1        0.1385
     26 H           0.4848    4.0320    0.3455 H       1  UNL1        0.1391
@<TRIPOS>BOND
     1    20    15    1
     2    19    14    1
     3     3     2    2
     4    15    14   ar
     5    15    10   ar
     6    14    13   ar
     7     7     5    1
     8     2     1    1
     9     2    21   am
    10     1    10    1
    11     1     4    2
    12     6     5    1
    13     9     4    1
    14    10    11   ar
    15     4     5    1
    16     5     8    1
    17    13    18    1
    18    13    12   ar
    19    26    22    1
    20    25    22    1
    21    21    22    1
    22    21    23    1
    23    22    24    1
    24    11    12   ar
    25    11    16    1
    26    12    17    1
