@<TRIPOS>MOLECULE
GS-595-1.out
 13 12 0 0 0
SMALL
MULLIKEN_CHARGES
****
Gaussian 16 # wB97XD def2tzvp, opt=(calcfc, maxcycles=70, maxstep=1), freq=noraman
@<TRIPOS>ATOM
      1 C           0.3254    0.3231    0.0057 C.2     1  UNL1       -0.0196
      2 C           1.1248   -0.9542   -0.1106 C.2     1  UNL1        0.3019
      3 O           1.6337   -1.2736   -1.1695 O.2     1  UNL1       -0.4403
      4 C          -0.9987    0.4114   -0.0006 C.2     1  UNL1        0.0393
      5 C          -1.8376    1.6390    0.0467 C.3     1  UNL1       -0.3350
      6 H          -1.2210    2.5317    0.1126 H       1  UNL1        0.1407
      7 H          -2.4577    1.6999   -0.8490 H       1  UNL1        0.1547
      8 H          -2.5023    1.6006    0.9110 H       1  UNL1        0.1542
      9 CL         -1.9118   -1.0725   -0.0970 Cl      1  UNL1       -0.0837
     10 CL          1.3325    1.7343    0.0642 Cl      1  UNL1       -0.0726
     11 N           1.2467   -1.6485    1.0275 N.am    1  UNL1       -0.4310
     12 H           1.7599   -2.5139    1.0274 H       1  UNL1        0.2888
     13 H           0.7896   -1.3566    1.8727 H       1  UNL1        0.3025
@<TRIPOS>BOND
     1     3     2    2
     2     7     5    1
     3     2     1    1
     4     2    11   am
     5     9     4    1
     6     4     1    2
     7     4     5    1
     8     1    10    1
     9     5     6    1
    10     5     8    1
    11    12    11    1
    12    11    13    1
