@<TRIPOS>MOLECULE
GS-521-1.out
 21 21 0 0 0
SMALL
MULLIKEN_CHARGES
****
Gaussian 16 # wB97XD def2tzvp, opt=(calcfc, maxcycles=70, maxstep=1), freq=noraman
@<TRIPOS>ATOM
      1 C          -0.0831    0.4211   -0.0194 C.2     1  UNL1       -0.0464
      2 C          -0.4283    1.8532   -0.1136 C.2     1  UNL1        0.1656
      3 O           0.3986    2.7325   -0.1867 O.2     1  UNL1       -0.3728
      4 C          -1.0041   -0.5490    0.0477 C.2     1  UNL1        0.0686
      5 C          -0.7331   -2.0095    0.1544 C.3     1  UNL1       -0.3690
      6 H           0.3352   -2.2057    0.2078 H       1  UNL1        0.1582
      7 H          -1.2178   -2.4147    1.0442 H       1  UNL1        0.1612
      8 H          -1.1492   -2.5306   -0.7098 H       1  UNL1        0.1620
      9 BR         -2.8746   -0.1708    0.0115 Br      1  UNL1       -0.0617
     10 C           1.3701    0.0879   -0.0054 C.ar    1  UNL1        0.1295
     11 C           2.0207   -0.2679   -1.1818 C.ar    1  UNL1       -0.2139
     12 C           3.3753   -0.5668   -1.1705 C.ar    1  UNL1       -0.1415
     13 C           4.0905   -0.5092    0.0169 C.ar    1  UNL1       -0.1307
     14 C           3.4468   -0.1501    1.1928 C.ar    1  UNL1       -0.1464
     15 C           2.0928    0.1495    1.1814 C.ar    1  UNL1       -0.2046
     16 H           1.4613   -0.3156   -2.1082 H       1  UNL1        0.1461
     17 H           3.8717   -0.8464   -2.0911 H       1  UNL1        0.1452
     18 H           5.1473   -0.7439    0.0263 H       1  UNL1        0.1471
     19 H           3.9995   -0.1042    2.1226 H       1  UNL1        0.1449
     20 H           1.5905    0.4278    2.0998 H       1  UNL1        0.1445
     21 H          -1.5016    2.0948   -0.1144 H       1  UNL1        0.1142
@<TRIPOS>BOND
     1    16    11    1
     2    17    12    1
     3    11    12   ar
     4    11    10   ar
     5    12    13   ar
     6     8     5    1
     7     3     2    2
     8    21     2    1
     9     2     1    1
    10     1    10    1
    11     1     4    2
    12    10    15   ar
    13     9     4    1
    14    13    18    1
    15    13    14   ar
    16     4     5    1
    17     5     6    1
    18     5     7    1
    19    15    14   ar
    20    15    20    1
    21    14    19    1
