@<TRIPOS>MOLECULE
GS-539-0.out
 16 15 0 0 0
SMALL
MULLIKEN_CHARGES
****
Gaussian 16 # wB97XD def2tzvp, opt=(calcfc, maxcycles=70, maxstep=10), freq=norama
@<TRIPOS>ATOM
      1 C          -0.9789    0.6921    0.0077 C.2     1  UNL1       -0.0727
      2 C          -1.5771   -0.6882   -0.1012 C.2     1  UNL1        0.3149
      3 O          -1.9705   -1.1202   -1.1736 O.2     1  UNL1       -0.4599
      4 C           0.3316    0.8981    0.0289 C.2     1  UNL1        0.0037
      5 C           1.0698    2.1937    0.0846 C.3     1  UNL1       -0.3425
      6 H           0.3883    3.0393    0.1394 H       1  UNL1        0.1275
      7 H           1.7228    2.2206    0.9585 H       1  UNL1        0.1481
      8 H           1.6975    2.3126   -0.8002 H       1  UNL1        0.1486
      9 BR          1.5246   -0.6063   -0.0462 Br      1  UNL1       -0.1070
     10 C          -2.0227    1.7740    0.0230 C.3     1  UNL1       -0.3181
     11 H          -2.6844    1.6440    0.8823 H       1  UNL1        0.1449
     12 H          -1.5981    2.7726    0.0659 H       1  UNL1        0.1242
     13 H          -2.6375    1.6988   -0.8763 H       1  UNL1        0.1471
     14 N          -1.7114   -1.3514    1.0580 N.am    1  UNL1       -0.4361
     15 H          -2.1074   -2.2762    1.0582 H       1  UNL1        0.2814
     16 H          -1.3325   -0.9876    1.9137 H       1  UNL1        0.2958
@<TRIPOS>BOND
     1     3     2    2
     2    13    10    1
     3     8     5    1
     4     2     1    1
     5     2    14   am
     6     9     4    1
     7     1    10    1
     8     1     4    2
     9    10    12    1
    10    10    11    1
    11     4     5    1
    12     5     6    1
    13     5     7    1
    14    14    15    1
    15    14    16    1
