@<TRIPOS>MOLECULE
GS-510-0.out
 22 21 0 0 0
SMALL
MULLIKEN_CHARGES
****
Gaussian 16 # wb97xd def2tzvp opt=(calcfc, maxcycles=100, maxstep=10) freq=noraman
@<TRIPOS>ATOM
      1 C          -0.3598    0.2643   -0.1988 C.2     1  UNL1       -0.1022
      2 C           1.0253   -0.1324   -0.6373 C.2     1  UNL1        0.2920
      3 O           1.2222   -0.4123   -1.8150 O.2     1  UNL1       -0.4834
      4 C          -0.7999    1.5130   -0.1021 C.2     1  UNL1       -0.0093
      5 C          -2.2010    1.9087    0.2400 C.3     1  UNL1       -0.3465
      6 H          -2.6086    2.5407   -0.5525 H       1  UNL1        0.1418
      7 H          -2.8615    1.0574    0.3820 H       1  UNL1        0.1338
      8 H          -2.1995    2.5070    1.1545 H       1  UNL1        0.1424
      9 C           0.1407    2.6640   -0.3304 C.3     1  UNL1       -0.3520
     10 H           0.1856    3.2841    0.5683 H       1  UNL1        0.1427
     11 H           1.1522    2.3518   -0.5828 H       1  UNL1        0.1447
     12 H          -0.2368    3.2948   -1.1383 H       1  UNL1        0.1479
     13 BR         -1.4569   -1.2695    0.0872 Br      1  UNL1       -0.0840
     14 N           1.9855   -0.1669    0.3049 N.am    1  UNL1       -0.1057
     15 C           3.3435   -0.5218   -0.0574 C.3     1  UNL1       -0.2757
     16 C           1.7838    0.1432    1.7064 C.3     1  UNL1       -0.2889
     17 H           3.3994   -0.6959   -1.1267 H       1  UNL1        0.1513
     18 H           4.0226    0.2885    0.2160 H       1  UNL1        0.1408
     19 H           3.6483   -1.4255    0.4749 H       1  UNL1        0.1443
     20 H           2.3460    1.0396    1.9784 H       1  UNL1        0.1486
     21 H           0.7332    0.3104    1.9197 H       1  UNL1        0.1694
     22 H           2.1396   -0.6879    2.3183 H       1  UNL1        0.1481
@<TRIPOS>BOND
     1     3     2    2
     2    12     9    1
     3    17    15    1
     4     2     1    1
     5     2    14   am
     6    11     9    1
     7     6     5    1
     8     9     4    1
     9     9    10    1
    10     1     4    2
    11     1    13    1
    12     4     5    1
    13    15    18    1
    14    15    14    1
    15    15    19    1
    16     5     7    1
    17     5     8    1
    18    14    16    1
    19    16    21    1
    20    16    20    1
    21    16    22    1
