@<TRIPOS>MOLECULE
GS-535-0.out
 23 23 0 0 0
SMALL
MULLIKEN_CHARGES
****
Gaussian 16 # wB97XD def2tzvp, opt=(calcfc, maxcycles=70, maxstep=10), freq=norama
@<TRIPOS>ATOM
      1 C          -1.6308    1.4449    0.5283 C.2     1  UNL1       -0.2909
      2 C          -0.2040    1.4570    0.0876 C.2     1  UNL1        0.4514
      3 O           0.2041    2.3651   -0.6168 O.2     1  UNL1       -0.4674
      4 C          -2.5531    0.5095    0.3522 C.2     1  UNL1        0.0307
      5 C          -3.9836    0.6352    0.7540 C.3     1  UNL1       -0.3394
      6 H          -4.1546    1.5985    1.2334 H       1  UNL1        0.1440
      7 H          -4.6355    0.5512   -0.1169 H       1  UNL1        0.1519
      8 H          -4.2559   -0.1606    1.4491 H       1  UNL1        0.1518
      9 BR         -2.1522   -1.1480   -0.5087 Br      1  UNL1       -0.0792
     10 H          -1.9560    2.3817    0.9682 H       1  UNL1        0.1800
     11 N           0.5580    0.4422    0.5639 N.am    1  UNL1       -0.2786
     12 C           1.9059    0.1398    0.3062 C.ar    1  UNL1        0.3151
     13 C           2.4130   -1.0227    0.8884 C.ar    1  UNL1       -0.3027
     14 C           3.7300   -1.3908    0.6833 C.ar    1  UNL1       -0.0970
     15 C           4.5621   -0.6075   -0.1054 C.ar    1  UNL1       -0.1859
     16 C           4.0563    0.5460   -0.6828 C.ar    1  UNL1       -0.1063
     17 C           2.7368    0.9295   -0.4855 C.ar    1  UNL1       -0.2967
     18 H           0.0791   -0.2167    1.1561 H       1  UNL1        0.2731
     19 H           1.7689   -1.6402    1.5036 H       1  UNL1        0.1459
     20 H           4.1063   -2.2959    1.1427 H       1  UNL1        0.1472
     21 H           5.5929   -0.8948   -0.2665 H       1  UNL1        0.1442
     22 H           4.6941    1.1662   -1.3000 H       1  UNL1        0.1454
     23 H           2.3529    1.8290   -0.9378 H       1  UNL1        0.1634
@<TRIPOS>BOND
     1    22    16    1
     2    23    17    1
     3    16    17   ar
     4    16    15   ar
     5     3     2    2
     6     9     4    1
     7    17    12   ar
     8    21    15    1
     9     7     5    1
    10    15    14   ar
    11     2     1    1
    12     2    11   am
    13    12    11    1
    14    12    13   ar
    15     4     1    2
    16     4     5    1
    17     1    10    1
    18    11    18    1
    19    14    13   ar
    20    14    20    1
    21     5     6    1
    22     5     8    1
    23    13    19    1
