@<TRIPOS>MOLECULE
GS-50-1.out
 21 21 0 0 0
SMALL
MULLIKEN_CHARGES
****
Gaussian 16 # wB97XD def2tzvp, opt=(maxcycles=70, maxstep=1), freq=noraman, scrf=(
@<TRIPOS>ATOM
      1 C          -1.5623    0.3585   -0.0001 C.2     1  UNL1       -0.2099
      2 C          -2.9655   -0.1149   -0.0000 C.2     1  UNL1        0.3120
      3 O          -3.2567   -1.2962   -0.0001 O.2     1  UNL1       -0.4230
      4 C          -0.5410   -0.5012    0.0000 C.2     1  UNL1       -0.1437
      5 C           0.8885   -0.1902    0.0000 C.ar    1  UNL1        0.2322
      6 C           1.3839    1.1174   -0.0000 C.ar    1  UNL1       -0.2241
      7 C           2.7464    1.3534   -0.0000 C.ar    1  UNL1       -0.1360
      8 C           3.6423    0.2903    0.0000 C.ar    1  UNL1       -0.1348
      9 C           3.1658   -1.0116    0.0001 C.ar    1  UNL1       -0.1391
     10 C           1.8000   -1.2476    0.0001 C.ar    1  UNL1       -0.2169
     11 H           0.7029    1.9585   -0.0001 H       1  UNL1        0.1416
     12 H           3.1147    2.3713   -0.0001 H       1  UNL1        0.1475
     13 H           4.7081    0.4796    0.0000 H       1  UNL1        0.1497
     14 H           3.8570   -1.8446    0.0001 H       1  UNL1        0.1472
     15 H           1.4295   -2.2659    0.0001 H       1  UNL1        0.1457
     16 H          -0.7909   -1.5589    0.0001 H       1  UNL1        0.1379
     17 H          -1.4110    1.4313   -0.0002 H       1  UNL1        0.1558
     18 C          -4.0181    0.9593    0.0002 C.3     1  UNL1       -0.3849
     19 H          -3.8912    1.5981    0.8774 H       1  UNL1        0.1533
     20 H          -3.8916    1.5979   -0.8772 H       1  UNL1        0.1533
     21 H          -5.0138    0.5225    0.0004 H       1  UNL1        0.1361
@<TRIPOS>BOND
     1    20    18    1
     2    17     1    1
     3     3     2    2
     4    11     6    1
     5     1     2    1
     6     1     4    2
     7    12     7    1
     8     6     7   ar
     9     6     5   ar
    10     7     8   ar
    11     2    18    1
    12     8    13    1
    13     8     9   ar
    14     5     4    1
    15     5    10   ar
    16     4    16    1
    17    10     9   ar
    18    10    15    1
    19     9    14    1
    20    18    21    1
    21    18    19    1
