@<TRIPOS>MOLECULE
GS-558-0.out
 19 18 0 0 0
SMALL
MULLIKEN_CHARGES
****
Gaussian 16 # wB97XD def2tzvp, opt=(calcfc, maxcycles=70, maxstep=10), freq=norama
@<TRIPOS>ATOM
      1 C           0.1016    0.9434   -0.1442 C.2     1  UNL1       -0.0391
      2 C           1.2006    0.0194   -0.6135 C.2     1  UNL1        0.3210
      3 O           1.4187   -0.0576   -1.8155 O.2     1  UNL1       -0.4745
      4 C          -1.1643    0.6104    0.0609 C.2     1  UNL1       -0.0237
      5 C          -2.3065    1.4953    0.4158 C.3     1  UNL1       -0.3514
      6 H          -1.9870    2.5330    0.4812 H       1  UNL1        0.1420
      7 H          -3.0929    1.4139   -0.3361 H       1  UNL1        0.1557
      8 H          -2.7305    1.1946    1.3752 H       1  UNL1        0.1568
      9 BR         -1.6176   -1.2328   -0.0964 Br      1  UNL1       -0.0579
     10 CL          0.6379    2.5927   -0.0176 Cl      1  UNL1       -0.0747
     11 N           1.8942   -0.6376    0.3281 N.am    1  UNL1       -0.0998
     12 C           2.9542   -1.5477   -0.0601 C.3     1  UNL1       -0.2749
     13 C           1.6407   -0.5536    1.7529 C.3     1  UNL1       -0.2942
     14 H           3.0587   -1.5429   -1.1399 H       1  UNL1        0.1529
     15 H           3.8948   -1.2378    0.3990 H       1  UNL1        0.1457
     16 H           2.7162   -2.5583    0.2785 H       1  UNL1        0.1434
     17 H           0.8838    0.1930    1.9717 H       1  UNL1        0.1709
     18 H           1.3007   -1.5204    2.1304 H       1  UNL1        0.1512
     19 H           2.5614   -0.2805    2.2711 H       1  UNL1        0.1505
@<TRIPOS>BOND
     1     3     2    2
     2    14    12    1
     3     2     1    1
     4     2    11   am
     5     7     5    1
     6     1    10    1
     7     1     4    2
     8     9     4    1
     9    12    16    1
    10    12    11    1
    11    12    15    1
    12     4     5    1
    13    11    13    1
    14     5     6    1
    15     5     8    1
    16    13    17    1
    17    13    18    1
    18    13    19    1
