@<TRIPOS>MOLECULE
GS-626-0.out
 21 21 0 0 0
SMALL
MULLIKEN_CHARGES
****
Gaussian 16 # wB97XD def2tzvp, opt=(calcfc, maxcycles=70, maxstep=10), freq=norama
@<TRIPOS>ATOM
      1 C          -0.8311    0.6287    0.0688 C.2     1  UNL1       -0.0653
      2 C          -0.4322    2.0862    0.1679 C.2     1  UNL1        0.2410
      3 O          -0.9947    2.9056   -0.5157 O.2     1  UNL1       -0.3556
      4 C           0.0483   -0.3717    0.0089 C.2     1  UNL1       -0.0427
      5 BR         -0.4897   -2.1851   -0.0689 Br      1  UNL1       -0.0250
      6 C           1.5093   -0.1621   -0.0656 C.ar    1  UNL1        0.2312
      7 C           2.3552   -0.6605    0.9234 C.ar    1  UNL1       -0.2002
      8 C           3.7149   -0.4152    0.8583 C.ar    1  UNL1       -0.1337
      9 C           4.2440    0.3116   -0.2016 C.ar    1  UNL1       -0.1328
     10 C           3.4087    0.7899   -1.1988 C.ar    1  UNL1       -0.1214
     11 C           2.0439    0.5540   -1.1328 C.ar    1  UNL1       -0.2571
     12 H           1.9434   -1.2249    1.7505 H       1  UNL1        0.1590
     13 H           4.3657   -0.7906    1.6371 H       1  UNL1        0.1510
     14 H           5.3089    0.4989   -0.2505 H       1  UNL1        0.1521
     15 H           3.8170    1.3475   -2.0315 H       1  UNL1        0.1516
     16 H           1.3891    0.9239   -1.9118 H       1  UNL1        0.1674
     17 BR         -2.6979    0.3759   -0.0136 Br      1  UNL1       -0.0263
     18 C           0.6171    2.4879    1.1717 C.3     1  UNL1       -0.3778
     19 H           0.2716    3.3960    1.6646 H       1  UNL1        0.1651
     20 H           0.8158    1.7133    1.9077 H       1  UNL1        0.1544
     21 H           1.5455    2.7220    0.6491 H       1  UNL1        0.1652
@<TRIPOS>BOND
     1    15    10    1
     2    16    11    1
     3    10    11   ar
     4    10     9   ar
     5    11     6   ar
     6     3     2    2
     7    14     9    1
     8     9     8   ar
     9     5     4    1
    10     6     4    1
    11     6     7   ar
    12    17     1    1
    13     4     1    2
    14     1     2    1
    15     2    18    1
    16    21    18    1
    17     8     7   ar
    18     8    13    1
    19     7    12    1
    20    18    19    1
    21    18    20    1
