@<TRIPOS>MOLECULE
GS-683-0.out
 23 23 0 0 0
SMALL
MULLIKEN_CHARGES
****
Gaussian 16 # wB97XD def2tzvp, opt=(calcfc, maxcycles=70, maxstep=10), freq=norama
@<TRIPOS>ATOM
      1 C          -0.3794    0.8319   -0.0101 C.2     1  UNL1       -0.0648
      2 C          -0.4262    2.3429   -0.0133 C.2     1  UNL1        0.3046
      3 O          -1.2914    2.9889    0.5595 O.2     1  UNL1       -0.4662
      4 C          -1.5108    0.1269   -0.0365 C.2     1  UNL1        0.0308
      5 BR         -1.4165   -1.7814    0.0574 Br      1  UNL1       -0.0800
      6 C          -2.9169    0.6120   -0.1388 C.3     1  UNL1       -0.3586
      7 H          -2.9469    1.6842   -0.3048 H       1  UNL1        0.1487
      8 H          -3.4260    0.0963   -0.9540 H       1  UNL1        0.1469
      9 H          -3.4588    0.3866    0.7819 H       1  UNL1        0.1522
     10 C           0.9785    0.2204    0.0177 C.ar    1  UNL1        0.1053
     11 C           1.5355   -0.3273   -1.1345 C.ar    1  UNL1       -0.2121
     12 C           2.8132   -0.8662   -1.1080 C.ar    1  UNL1       -0.1300
     13 C           3.5451   -0.8634    0.0704 C.ar    1  UNL1       -0.1259
     14 C           2.9971   -0.3145    1.2215 C.ar    1  UNL1       -0.1544
     15 C           1.7229    0.2306    1.1939 C.ar    1  UNL1       -0.1771
     16 H           0.9610   -0.3346   -2.0529 H       1  UNL1        0.1543
     17 H           3.2357   -1.2906   -2.0098 H       1  UNL1        0.1469
     18 H           4.5414   -1.2861    0.0918 H       1  UNL1        0.1485
     19 H           3.5641   -0.3088    2.1436 H       1  UNL1        0.1461
     20 H           1.2981    0.6625    2.0920 H       1  UNL1        0.1473
     21 N           0.5791    2.9327   -0.6864 N.am    1  UNL1       -0.4335
     22 H           0.6276    3.9364   -0.7069 H       1  UNL1        0.2799
     23 H           1.3051    2.4034   -1.1346 H       1  UNL1        0.2909
@<TRIPOS>BOND
     1    16    11    1
     2    17    12    1
     3    23    21    1
     4    11    12   ar
     5    11    10   ar
     6    12    13   ar
     7     8     6    1
     8    22    21    1
     9    21     2   am
    10     7     6    1
    11     6     4    1
    12     6     9    1
    13     4     1    2
    14     4     5    1
    15     2     1    1
    16     2     3    2
    17     1    10    1
    18    10    15   ar
    19    13    18    1
    20    13    14   ar
    21    15    14   ar
    22    15    20    1
    23    14    19    1
