@<TRIPOS>MOLECULE
GS-674-0.out
 11 10 0 0 0
SMALL
MULLIKEN_CHARGES
****
Gaussian 16 # wB97XD def2tzvp, opt=(calcfc, maxcycles=70, maxstep=10), freq=norama
@<TRIPOS>ATOM
      1 C          -0.7356   -0.0152   -0.0000 C.2     1  UNL1       -0.0604
      2 C          -2.0925   -0.6766    0.0000 C.2     1  UNL1        0.2832
      3 O          -2.1583   -1.8840   -0.0000 O.2     1  UNL1       -0.3805
      4 C           0.3532   -0.7763    0.0000 C.2     1  UNL1       -0.0809
      5 BR          2.1091   -0.1641    0.0000 Br      1  UNL1        0.0026
      6 H           0.2478   -1.8512    0.0000 H       1  UNL1        0.2015
      7 CL         -0.6624    1.7094   -0.0000 Cl      1  UNL1       -0.0638
      8 C          -3.3113    0.1943    0.0000 C.3     1  UNL1       -0.3730
      9 H          -3.3131    0.8433   -0.8774 H       1  UNL1        0.1630
     10 H          -4.1974   -0.4345    0.0000 H       1  UNL1        0.1453
     11 H          -3.3131    0.8433    0.8774 H       1  UNL1        0.1630
@<TRIPOS>BOND
     1     9     8    1
     2     3     2    2
     3     7     1    1
     4     1     2    1
     5     1     4    2
     6     2     8    1
     7     4     5    1
     8     4     6    1
     9     8    10    1
    10     8    11    1
