@<TRIPOS>MOLECULE
GS-672-0.out
 18 18 0 0 0
SMALL
MULLIKEN_CHARGES
****
Gaussian 16 # wB97XD def2tzvp, opt=(calcfc, maxcycles=70, maxstep=10), freq=norama
@<TRIPOS>ATOM
      1 C           0.5070    0.3709   -0.3394 C.2     1  UNL1       -0.0853
      2 C          -0.7912    1.0741   -0.6544 C.2     1  UNL1        0.2938
      3 O          -0.7698    2.0604   -1.3541 O.2     1  UNL1       -0.3553
      4 C           1.5183    1.0679    0.1546 C.2     1  UNL1       -0.1123
      5 BR          3.2045    0.3989    0.5952 Br      1  UNL1       -0.0111
      6 H           1.4043    2.1259    0.3451 H       1  UNL1        0.2046
      7 BR          0.5868   -1.4671   -0.7409 Br      1  UNL1       -0.0137
      8 C          -2.0499    0.5431   -0.0719 C.ar    1  UNL1        0.1009
      9 C          -3.2562    0.8344   -0.7057 C.ar    1  UNL1       -0.2044
     10 C          -4.4488    0.3916   -0.1625 C.ar    1  UNL1       -0.1266
     11 C          -4.4444   -0.3269    1.0265 C.ar    1  UNL1       -0.1223
     12 C          -3.2468   -0.6074    1.6691 C.ar    1  UNL1       -0.1478
     13 C          -2.0498   -0.1821    1.1173 C.ar    1  UNL1       -0.2098
     14 H          -3.2467    1.4022   -1.6268 H       1  UNL1        0.1523
     15 H          -5.3836    0.6075   -0.6630 H       1  UNL1        0.1519
     16 H          -5.3785   -0.6686    1.4539 H       1  UNL1        0.1537
     17 H          -3.2450   -1.1593    2.5997 H       1  UNL1        0.1522
     18 H          -1.1182   -0.3998    1.6241 H       1  UNL1        0.1792
@<TRIPOS>BOND
     1    14     9    1
     2     3     2    2
     3     7     1    1
     4     9    10   ar
     5     9     8   ar
     6    15    10    1
     7     2     1    1
     8     2     8    1
     9     1     4    2
    10    10    11   ar
    11     8    13   ar
    12     4     6    1
    13     4     5    1
    14    11    16    1
    15    11    12   ar
    16    13    18    1
    17    13    12   ar
    18    12    17    1
