@<TRIPOS>MOLECULE
GS-679-0.out
 20 20 0 0 0
SMALL
MULLIKEN_CHARGES
****
Gaussian 16 # wB97XD def2tzvp, opt=(calcfc, maxcycles=70, maxstep=10), freq=norama
@<TRIPOS>ATOM
      1 C           1.1308    0.0611   -0.0000 C.2     1  UNL1       -0.0923
      2 C          -0.2560   -0.5417    0.0000 C.2     1  UNL1        0.4360
      3 O          -0.3839   -1.7526    0.0001 O.2     1  UNL1       -0.4690
      4 C           2.1701   -0.7633    0.0000 C.2     1  UNL1       -0.0918
      5 BR          3.9593   -0.2531    0.0000 Br      1  UNL1        0.0002
      6 H           1.9989   -1.8292    0.0001 H       1  UNL1        0.2033
      7 CL          1.3143    1.7797   -0.0001 Cl      1  UNL1       -0.0677
      8 N          -1.2705    0.3484   -0.0000 N.am    1  UNL1       -0.2538
      9 C          -2.6568    0.1072   -0.0000 C.ar    1  UNL1        0.3024
     10 C          -3.4866    1.2290    0.0001 C.ar    1  UNL1       -0.2995
     11 C          -4.8612    1.0811    0.0001 C.ar    1  UNL1       -0.0970
     12 C          -5.4295   -0.1859    0.0000 C.ar    1  UNL1       -0.1829
     13 C          -4.6032   -1.2977   -0.0001 C.ar    1  UNL1       -0.1076
     14 C          -3.2212   -1.1658   -0.0001 C.ar    1  UNL1       -0.2851
     15 H          -1.0062    1.3208   -0.0001 H       1  UNL1        0.2487
     16 H          -3.0506    2.2212    0.0001 H       1  UNL1        0.1481
     17 H          -5.4902    1.9619    0.0002 H       1  UNL1        0.1483
     18 H          -6.5053   -0.3026    0.0000 H       1  UNL1        0.1453
     19 H          -5.0332   -2.2914   -0.0001 H       1  UNL1        0.1463
     20 H          -2.5879   -2.0373   -0.0002 H       1  UNL1        0.1680
@<TRIPOS>BOND
     1    20    14    1
     2    19    13    1
     3    14    13   ar
     4    14     9   ar
     5    15     8    1
     6    13    12   ar
     7     7     1    1
     8     8     9    1
     9     8     2   am
    10     9    10   ar
    11     1     2    1
    12     1     4    2
    13     5     4    1
    14     2     3    2
    15    12    18    1
    16    12    11   ar
    17     4     6    1
    18    10    11   ar
    19    10    16    1
    20    11    17    1
