@<TRIPOS>MOLECULE
GS-604-1.out
 32 33 0 0 0
SMALL
MULLIKEN_CHARGES
****
Gaussian 16 # wB97XD def2tzvp, opt=(calcfc, maxcycles=70, maxstep=1), freq=noraman
@<TRIPOS>ATOM
      1 C           0.4994    0.4740    0.0349 C.2     1  UNL1        0.0598
      2 C          -0.0195    1.8804    0.1347 C.2     1  UNL1        0.3122
      3 O           0.3250    2.6456    1.0001 O.2     1  UNL1       -0.3954
      4 C          -0.3561   -0.5464   -0.0140 C.2     1  UNL1       -0.0361
      5 BR          0.2949   -2.3289   -0.1956 Br      1  UNL1       -0.0514
      6 C          -1.8258   -0.4428    0.0979 C.ar    1  UNL1        0.1935
      7 C          -2.6620   -0.9512   -0.8935 C.ar    1  UNL1       -0.2311
      8 C          -4.0342   -0.8041   -0.7889 C.ar    1  UNL1       -0.1481
      9 C          -4.5868   -0.1626    0.3125 C.ar    1  UNL1       -0.1290
     10 C          -3.7604    0.3297    1.3105 C.ar    1  UNL1       -0.1404
     11 C          -2.3847    0.1887    1.2058 C.ar    1  UNL1       -0.2313
     12 H          -2.2350   -1.4514   -1.7536 H       1  UNL1        0.1563
     13 H          -4.6758   -1.1905   -1.5702 H       1  UNL1        0.1477
     14 H          -5.6606   -0.0526    0.3932 H       1  UNL1        0.1495
     15 H          -4.1845    0.8212    2.1765 H       1  UNL1        0.1487
     16 H          -1.7401    0.5655    1.9903 H       1  UNL1        0.1655
     17 C           1.9805    0.3663    0.0548 C.ar    1  UNL1        0.1737
     18 C           2.7205    0.8039   -1.0393 C.ar    1  UNL1       -0.2071
     19 C           4.1048    0.7241   -1.0232 C.ar    1  UNL1       -0.1514
     20 C           4.7593    0.2184    0.0907 C.ar    1  UNL1       -0.1292
     21 C           4.0255   -0.2069    1.1893 C.ar    1  UNL1       -0.1371
     22 C           2.6416   -0.1331    1.1725 C.ar    1  UNL1       -0.2420
     23 H           2.2107    1.2008   -1.9091 H       1  UNL1        0.1488
     24 H           4.6723    1.0586   -1.8822 H       1  UNL1        0.1463
     25 H           5.8401    0.1583    0.1041 H       1  UNL1        0.1482
     26 H           4.5317   -0.5968    2.0631 H       1  UNL1        0.1462
     27 H           2.0675   -0.4647    2.0286 H       1  UNL1        0.1565
     28 O          -0.8543    2.1904   -0.8468 O.3     1  UNL1       -0.2594
     29 C          -1.4514    3.4896   -0.7886 C.3     1  UNL1       -0.2073
     30 H          -2.0976    3.5535   -1.6584 H       1  UNL1        0.1518
     31 H          -2.0341    3.5920    0.1264 H       1  UNL1        0.1458
     32 H          -0.6854    4.2627   -0.8250 H       1  UNL1        0.1459
@<TRIPOS>BOND
     1    23    18    1
     2    24    19    1
     3    12     7    1
     4    30    29    1
     5    13     8    1
     6    18    19   ar
     7    18    17   ar
     8    19    20   ar
     9     7     8   ar
    10     7     6   ar
    11    28    29    1
    12    28     2    1
    13    32    29    1
    14     8     9   ar
    15    29    31    1
    16     5     4    1
    17     4     1    2
    18     4     6    1
    19     1    17    1
    20     1     2    1
    21    17    22   ar
    22    20    25    1
    23    20    21   ar
    24     6    11   ar
    25     2     3    2
    26     9    14    1
    27     9    10   ar
    28    22    21   ar
    29    22    27    1
    30    21    26    1
    31    11    10   ar
    32    11    16    1
    33    10    15    1
