@<TRIPOS>MOLECULE
GS-662-0.out
 19 18 0 0 0
SMALL
MULLIKEN_CHARGES
****
Gaussian 16 # wB97XD def2tzvp, opt=(calcfc, maxcycles=70, maxstep=10), freq=norama
@<TRIPOS>ATOM
      1 C          -0.1561    0.6127    0.1911 C.2     1  UNL1       -0.1260
      2 C          -1.6027    0.6035   -0.2439 C.2     1  UNL1        0.3279
      3 O          -2.0324    1.5813   -0.8484 O.2     1  UNL1       -0.4956
      4 C           0.6629   -0.2230   -0.4265 C.2     1  UNL1       -0.1211
      5 BR          2.5351   -0.2901   -0.1622 Br      1  UNL1       -0.0820
      6 H           0.3279   -0.9541   -1.1480 H       1  UNL1        0.1871
      7 C           0.2000    1.6555    1.1993 C.3     1  UNL1       -0.3348
      8 H          -0.1266    2.6352    0.8476 H       1  UNL1        0.1480
      9 H          -0.3187    1.4574    2.1407 H       1  UNL1        0.1477
     10 H           1.2702    1.6850    1.3904 H       1  UNL1        0.1360
     11 N          -2.3515   -0.4769    0.0404 N.am    1  UNL1       -0.1074
     12 C          -3.7186   -0.5447   -0.4392 C.3     1  UNL1       -0.2859
     13 C          -1.9506   -1.5616    0.9175 C.3     1  UNL1       -0.2990
     14 H          -3.8574    0.1657   -1.2480 H       1  UNL1        0.1486
     15 H          -3.9199   -1.5539   -0.8005 H       1  UNL1        0.1435
     16 H          -4.4230   -0.3149    0.3645 H       1  UNL1        0.1462
     17 H          -1.0142   -1.3339    1.4155 H       1  UNL1        0.1690
     18 H          -2.7215   -1.7092    1.6761 H       1  UNL1        0.1476
     19 H          -1.8357   -2.4903    0.3542 H       1  UNL1        0.1501
@<TRIPOS>BOND
     1    14    12    1
     2     6     4    1
     3     3     2    2
     4    15    12    1
     5    12    11    1
     6    12    16    1
     7     4     5    1
     8     4     1    2
     9     2    11   am
    10     2     1    1
    11    11    13    1
    12     1     7    1
    13    19    13    1
    14     8     7    1
    15    13    17    1
    16    13    18    1
    17     7    10    1
    18     7     9    1
