@<TRIPOS>MOLECULE
GS-603-0.out
 30 31 0 0 0
SMALL
MULLIKEN_CHARGES
****
Gaussian 16 # wB97XD def2tzvp, opt=(calcfc, maxcycles=70, maxstep=10), freq=norama
@<TRIPOS>ATOM
      1 C          -0.4598    0.6340    0.0418 C.2     1  UNL1        0.0146
      2 C          -0.0452    2.0896    0.0740 C.2     1  UNL1        0.2282
      3 O          -0.3431    2.8400   -0.8409 O.2     1  UNL1       -0.4406
      4 C           0.4610   -0.3258    0.0090 C.2     1  UNL1       -0.0138
      5 BR         -0.0650   -2.1625    0.0092 Br      1  UNL1       -0.0647
      6 C           1.9237   -0.1149   -0.0529 C.ar    1  UNL1        0.1077
      7 C           2.7649   -0.6228    0.9350 C.ar    1  UNL1       -0.2089
      8 C           4.1268   -0.3807    0.8818 C.ar    1  UNL1       -0.1463
      9 C           4.6645    0.3575   -0.1648 C.ar    1  UNL1       -0.1274
     10 C           3.8338    0.8524   -1.1583 C.ar    1  UNL1       -0.1477
     11 C           2.4682    0.6172   -1.1045 C.ar    1  UNL1       -0.1931
     12 H           2.3487   -1.2003    1.7511 H       1  UNL1        0.1563
     13 H           4.7714   -0.7690    1.6598 H       1  UNL1        0.1478
     14 H           5.7303    0.5418   -0.2064 H       1  UNL1        0.1494
     15 H           4.2478    1.4212   -1.9809 H       1  UNL1        0.1481
     16 H           1.8189    1.0010   -1.8811 H       1  UNL1        0.1613
     17 C          -1.9294    0.4278    0.0063 C.ar    1  UNL1        0.2006
     18 C          -2.6943    0.6998    1.1366 C.ar    1  UNL1       -0.2022
     19 C          -4.0702    0.5293    1.1069 C.ar    1  UNL1       -0.1558
     20 C          -4.6930    0.0991   -0.0559 C.ar    1  UNL1       -0.1304
     21 C          -3.9353   -0.1601   -1.1896 C.ar    1  UNL1       -0.1350
     22 C          -2.5593    0.0038   -1.1597 C.ar    1  UNL1       -0.2550
     23 H          -2.2099    1.0389    2.0444 H       1  UNL1        0.1475
     24 H          -4.6562    0.7346    1.9937 H       1  UNL1        0.1457
     25 H          -5.7673   -0.0315   -0.0797 H       1  UNL1        0.1477
     26 H          -4.4169   -0.4908   -2.1010 H       1  UNL1        0.1458
     27 H          -1.9667   -0.1990   -2.0429 H       1  UNL1        0.1553
     28 N           0.6012    2.4869    1.1799 N.am    1  UNL1       -0.4130
     29 H           0.9151    3.4399    1.2536 H       1  UNL1        0.2813
     30 H           0.8564    1.8363    1.9008 H       1  UNL1        0.2967
@<TRIPOS>BOND
     1    26    21    1
     2    27    22    1
     3    15    10    1
     4    16    11    1
     5    21    22   ar
     6    21    20   ar
     7    22    17   ar
     8    10    11   ar
     9    10     9   ar
    10    11     6   ar
    11     3     2    2
    12    14     9    1
    13     9     8   ar
    14    25    20    1
    15    20    19   ar
    16     6     4    1
    17     6     7   ar
    18    17     1    1
    19    17    18   ar
    20     4     5    1
    21     4     1    2
    22     1     2    1
    23     2    28   am
    24     8     7   ar
    25     8    13    1
    26     7    12    1
    27    19    18   ar
    28    19    24    1
    29    18    23    1
    30    28    29    1
    31    28    30    1
