@<TRIPOS>MOLECULE
GS-666-0.out
 11 10 0 0 0
SMALL
MULLIKEN_CHARGES
****
Gaussian 16 # wB97XD def2tzvp, opt=(calcfc, maxcycles=70, maxstep=10), freq=norama
@<TRIPOS>ATOM
      1 C          -0.5906    0.4082    0.0000 C.2     1  UNL1       -0.1045
      2 C          -1.8642    1.2221    0.0000 C.2     1  UNL1        0.2784
      3 O          -1.7869    2.4290    0.0000 O.2     1  UNL1       -0.3802
      4 C           0.5718    1.0512   -0.0000 C.2     1  UNL1       -0.0725
      5 BR          2.2654    0.2829   -0.0000 Br      1  UNL1        0.0067
      6 H           0.5748    2.1319   -0.0000 H       1  UNL1        0.2010
      7 BR         -0.7049   -1.4738    0.0000 Br      1  UNL1       -0.0312
      8 C          -3.1814    0.5089   -0.0000 C.3     1  UNL1       -0.3710
      9 H          -3.2645   -0.1348    0.8774 H       1  UNL1        0.1636
     10 H          -3.9823    1.2432   -0.0000 H       1  UNL1        0.1462
     11 H          -3.2645   -0.1348   -0.8774 H       1  UNL1        0.1636
@<TRIPOS>BOND
     1    11     8    1
     2    10     8    1
     3     8     2    1
     4     8     9    1
     5     6     4    1
     6     5     4    1
     7     4     1    2
     8     2     1    1
     9     2     3    2
    10     1     7    1
