@<TRIPOS>MOLECULE
GS-659-0.out
 13 12 0 0 0
SMALL
MULLIKEN_CHARGES
****
Gaussian 16 # wB97XD def2tzvp, opt=(calcfc, maxcycles=70, maxstep=10), freq=norama
@<TRIPOS>ATOM
      1 C          -0.8082    0.2706    0.0000 C.2     1  UNL1       -0.0731
      2 C          -2.1657   -0.3923    0.0000 C.2     1  UNL1        0.3275
      3 O          -2.3032   -1.6082    0.0000 O.2     1  UNL1       -0.4823
      4 C           0.2152   -0.5743   -0.0000 C.2     1  UNL1       -0.0844
      5 BR          2.0298   -0.0836   -0.0000 Br      1  UNL1       -0.0564
      6 H           0.0646   -1.6431   -0.0000 H       1  UNL1        0.1881
      7 C          -0.7074    1.7635    0.0000 C.3     1  UNL1       -0.4113
      8 H          -1.1895    2.1879    0.8837 H       1  UNL1        0.1597
      9 H           0.3303    2.0872    0.0001 H       1  UNL1        0.1425
     10 H          -1.1894    2.1879   -0.8837 H       1  UNL1        0.1597
     11 N          -3.2223    0.4404   -0.0000 N.am    1  UNL1       -0.4429
     12 H          -4.1461    0.0445   -0.0000 H       1  UNL1        0.2802
     13 H          -3.1340    1.4392   -0.0001 H       1  UNL1        0.2927
@<TRIPOS>BOND
     1    10     7    1
     2    13    11    1
     3    12    11    1
     4    11     2   am
     5     6     4    1
     6     5     4    1
     7     4     1    2
     8     2     1    1
     9     2     3    2
    10     1     7    1
    11     7     9    1
    12     7     8    1
