@<TRIPOS>MOLECULE
GS-630-0.out
 26 26 0 0 0
SMALL
MULLIKEN_CHARGES
****
Gaussian 16 # wB97XD def2tzvp, opt=(calcfc, maxcycles=70, maxstep=10), freq=norama
@<TRIPOS>ATOM
      1 C          -0.8213    0.4276   -0.1711 C.2     1  UNL1       -0.0708
      2 C          -0.2068    1.7888   -0.4084 C.2     1  UNL1        0.2367
      3 O          -0.3413    2.3049   -1.5104 O.2     1  UNL1       -0.4649
      4 C          -0.0965   -0.6842   -0.1071 C.2     1  UNL1       -0.0529
      5 BR         -0.8927   -2.3910    0.1029 Br      1  UNL1       -0.0359
      6 C           1.3822   -0.6828   -0.1857 C.ar    1  UNL1        0.2409
      7 C           2.1448   -1.1928    0.8635 C.ar    1  UNL1       -0.2671
      8 C           3.5268   -1.1501    0.8036 C.ar    1  UNL1       -0.1177
      9 C           4.1607   -0.6087   -0.3073 C.ar    1  UNL1       -0.1360
     10 C           3.4065   -0.1119   -1.3589 C.ar    1  UNL1       -0.1403
     11 C           2.0214   -0.1491   -1.3014 C.ar    1  UNL1       -0.2055
     12 H           1.6530   -1.6138    1.7315 H       1  UNL1        0.1604
     13 H           4.1114   -1.5390    1.6272 H       1  UNL1        0.1491
     14 H           5.2417   -0.5786   -0.3531 H       1  UNL1        0.1498
     15 H           3.8948    0.3042   -2.2306 H       1  UNL1        0.1490
     16 H           1.4324    0.2372   -2.1228 H       1  UNL1        0.1580
     17 BR         -2.7024    0.4828   -0.1028 Br      1  UNL1       -0.0153
     18 N           0.4532    2.3527    0.6142 N.am    1  UNL1       -0.0754
     19 C           1.1542    3.6058    0.4083 C.3     1  UNL1       -0.2815
     20 C           0.5486    1.8046    1.9535 C.3     1  UNL1       -0.3164
     21 H           1.1460    3.8574   -0.6470 H       1  UNL1        0.1536
     22 H           0.6747    4.4062    0.9758 H       1  UNL1        0.1499
     23 H           2.1849    3.5019    0.7519 H       1  UNL1        0.1440
     24 H          -0.1561    0.9914    2.0955 H       1  UNL1        0.1711
     25 H           1.5592    1.4369    2.1446 H       1  UNL1        0.1599
     26 H           0.3192    2.5905    2.6742 H       1  UNL1        0.1573
@<TRIPOS>BOND
     1    15    10    1
     2    16    11    1
     3     3     2    2
     4    10    11   ar
     5    10     9   ar
     6    11     6   ar
     7    21    19    1
     8     2     1    1
     9     2    18   am
    10    14     9    1
    11     9     8   ar
    12     6     4    1
    13     6     7   ar
    14     1     4    2
    15     1    17    1
    16     4     5    1
    17    19    18    1
    18    19    23    1
    19    19    22    1
    20    18    20    1
    21     8     7   ar
    22     8    13    1
    23     7    12    1
    24    20    24    1
    25    20    25    1
    26    20    26    1
