@<TRIPOS>MOLECULE
GS-606-1.out
 36 37 0 0 0
SMALL
MULLIKEN_CHARGES
****
Gaussian 16 # wB97XD def2tzvp, opt=(calcfc, maxcycles=70, maxstep=1), freq=noraman
@<TRIPOS>ATOM
      1 C           0.5143    0.3788   -0.1775 C.2     1  UNL1       -0.0333
      2 C          -0.0470    1.7677   -0.3993 C.2     1  UNL1        0.2142
      3 O           0.1128    2.2854   -1.4997 O.2     1  UNL1       -0.4760
      4 C          -0.3089   -0.6638   -0.1355 C.2     1  UNL1        0.0005
      5 BR          0.3888   -2.4385   -0.0072 Br      1  UNL1       -0.0689
      6 C          -1.7857   -0.5908   -0.1901 C.ar    1  UNL1        0.2017
      7 C          -2.4168    0.0028   -1.2800 C.ar    1  UNL1       -0.2087
      8 C          -3.7990    0.1132   -1.3119 C.ar    1  UNL1       -0.1498
      9 C          -4.5610   -0.3700   -0.2594 C.ar    1  UNL1       -0.1287
     10 C          -3.9370   -0.9709    0.8261 C.ar    1  UNL1       -0.1322
     11 C          -2.5580   -1.0863    0.8589 C.ar    1  UNL1       -0.2636
     12 H          -1.8221    0.3804   -2.1015 H       1  UNL1        0.1546
     13 H          -4.2796    0.5762   -2.1642 H       1  UNL1        0.1467
     14 H          -5.6397   -0.2828   -0.2848 H       1  UNL1        0.1484
     15 H          -4.5269   -1.3494    1.6510 H       1  UNL1        0.1469
     16 H          -2.0742   -1.5540    1.7074 H       1  UNL1        0.1568
     17 C           1.9965    0.3128   -0.1065 C.ar    1  UNL1        0.1875
     18 C           2.6239    0.0609    1.1105 C.ar    1  UNL1       -0.2334
     19 C           4.0072    0.0180    1.1903 C.ar    1  UNL1       -0.1520
     20 C           4.7764    0.2279    0.0548 C.ar    1  UNL1       -0.1257
     21 C           4.1561    0.4838   -1.1598 C.ar    1  UNL1       -0.1501
     22 C           2.7725    0.5312   -1.2411 C.ar    1  UNL1       -0.2358
     23 H           2.0265   -0.1091    1.9977 H       1  UNL1        0.1610
     24 H           4.4840   -0.1802    2.1418 H       1  UNL1        0.1446
     25 H           5.8566    0.1926    0.1163 H       1  UNL1        0.1466
     26 H           4.7510    0.6469   -2.0495 H       1  UNL1        0.1443
     27 H           2.2874    0.7358   -2.1861 H       1  UNL1        0.1431
     28 N          -0.6698    2.3748    0.6248 N.am    1  UNL1       -0.0684
     29 C          -1.2793    3.6753    0.4271 C.3     1  UNL1       -0.2813
     30 C          -0.8197    1.8260    1.9573 C.3     1  UNL1       -0.3036
     31 H          -1.1864    3.9650   -0.6142 H       1  UNL1        0.1535
     32 H          -2.3357    3.6275    0.6997 H       1  UNL1        0.1404
     33 H          -0.7901    4.4214    1.0569 H       1  UNL1        0.1457
     34 H          -0.2449    0.9131    2.0707 H       1  UNL1        0.1621
     35 H          -0.4661    2.5543    2.6893 H       1  UNL1        0.1544
     36 H          -1.8704    1.6067    2.1610 H       1  UNL1        0.1586
@<TRIPOS>BOND
     1    27    22    1
     2    13     8    1
     3    12     7    1
     4    26    21    1
     5     3     2    2
     6     8     7   ar
     7     8     9   ar
     8     7     6   ar
     9    22    21   ar
    10    22    17   ar
    11    21    20   ar
    12    31    29    1
    13     2     1    1
    14     2    28   am
    15    14     9    1
    16     9    10   ar
    17     6     4    1
    18     6    11   ar
    19     1     4    2
    20     1    17    1
    21     4     5    1
    22    17    18   ar
    23    20    25    1
    24    20    19   ar
    25    29    28    1
    26    29    32    1
    27    29    33    1
    28    28    30    1
    29    10    11   ar
    30    10    15    1
    31    11    16    1
    32    18    19   ar
    33    18    23    1
    34    19    24    1
    35    30    34    1
    36    30    36    1
    37    30    35    1
