@<TRIPOS>MOLECULE
GS-634-0.out
 21 21 0 0 0
SMALL
MULLIKEN_CHARGES
****
Gaussian 16 # wB97XD def2tzvp, opt=(calcfc, maxcycles=70, maxstep=10), freq=norama
@<TRIPOS>ATOM
      1 C          -1.1247    0.8107    0.0493 C.2     1  UNL1        0.0391
      2 C          -0.5627    2.2194    0.1351 C.2     1  UNL1        0.1867
      3 O          -0.8843    3.0344   -0.6926 O.2     1  UNL1       -0.3449
      4 C          -0.3699   -0.2850   -0.0120 C.2     1  UNL1       -0.0336
      5 BR         -1.1450   -2.0110   -0.0909 Br      1  UNL1       -0.0328
      6 C           1.1052   -0.2484   -0.0753 C.ar    1  UNL1        0.1273
      7 C           1.8780   -0.9282    0.8654 C.ar    1  UNL1       -0.1862
      8 C           3.2577   -0.8395    0.8239 C.ar    1  UNL1       -0.1369
      9 C           3.8806   -0.0848   -0.1630 C.ar    1  UNL1       -0.1312
     10 C           3.1179    0.5770   -1.1116 C.ar    1  UNL1       -0.1291
     11 C           1.7337    0.4945   -1.0714 C.ar    1  UNL1       -0.2083
     12 H           1.3950   -1.5133    1.6377 H       1  UNL1        0.1584
     13 H           3.8508   -1.3590    1.5653 H       1  UNL1        0.1510
     14 H           4.9605   -0.0196   -0.1934 H       1  UNL1        0.1520
     15 H           3.5975    1.1566   -1.8895 H       1  UNL1        0.1519
     16 H           1.1385    1.0008   -1.8204 H       1  UNL1        0.1709
     17 CL         -2.8491    0.7857   -0.0037 Cl      1  UNL1       -0.0587
     18 C           0.2878    2.5499    1.3239 C.3     1  UNL1       -0.3506
     19 H          -0.3741    2.5974    2.1937 H       1  UNL1        0.1646
     20 H           1.0292    1.7789    1.5240 H       1  UNL1        0.1655
     21 H           0.7662    3.5159    1.1816 H       1  UNL1        0.1450
@<TRIPOS>BOND
     1    15    10    1
     2    16    11    1
     3    10    11   ar
     4    10     9   ar
     5    11     6   ar
     6     3     2    2
     7    14     9    1
     8     9     8   ar
     9     5     4    1
    10     6     4    1
    11     6     7   ar
    12     4     1    2
    13    17     1    1
    14     1     2    1
    15     2    18    1
    16     8     7   ar
    17     8    13    1
    18     7    12    1
    19    21    18    1
    20    18    20    1
    21    18    19    1
