@<TRIPOS>MOLECULE
GS-671-0.out
 20 20 0 0 0
SMALL
MULLIKEN_CHARGES
****
Gaussian 16 # wB97XD def2tzvp, opt=(calcfc, maxcycles=70, maxstep=10), freq=norama
@<TRIPOS>ATOM
      1 C          -0.9534   -0.2090    0.0016 C.2     1  UNL1       -0.1323
      2 C           0.4562   -0.7613    0.0014 C.2     1  UNL1        0.4367
      3 O           0.6247   -1.9675    0.0009 O.2     1  UNL1       -0.4689
      4 C          -1.9531   -1.0809   -0.0075 C.2     1  UNL1       -0.0845
      5 BR         -3.7704   -0.6798   -0.0098 Br      1  UNL1        0.0036
      6 H          -1.7289   -2.1377   -0.0144 H       1  UNL1        0.2031
      7 BR         -1.2479    1.6558    0.0147 Br      1  UNL1       -0.0391
      8 N           1.4449    0.1572    0.0009 N.am    1  UNL1       -0.2532
      9 C           2.8376   -0.0434   -0.0013 C.ar    1  UNL1        0.3003
     10 C           3.6328    1.1029   -0.0289 C.ar    1  UNL1       -0.2982
     11 C           5.0113    0.9972   -0.0308 C.ar    1  UNL1       -0.0981
     12 C           5.6182   -0.2515   -0.0056 C.ar    1  UNL1       -0.1823
     13 C           4.8263   -1.3878    0.0219 C.ar    1  UNL1       -0.1080
     14 C           3.4408   -1.2983    0.0244 C.ar    1  UNL1       -0.2856
     15 H           1.1555    1.1226   -0.0027 H       1  UNL1        0.2504
     16 H           3.1665    2.0811   -0.0489 H       1  UNL1        0.1483
     17 H           5.6131    1.8966   -0.0523 H       1  UNL1        0.1482
     18 H           6.6971   -0.3352   -0.0072 H       1  UNL1        0.1453
     19 H           5.2865   -2.3676    0.0422 H       1  UNL1        0.1463
     20 H           2.8348   -2.1886    0.0460 H       1  UNL1        0.1680
@<TRIPOS>BOND
     1    17    11    1
     2    16    10    1
     3    11    10   ar
     4    11    12   ar
     5    10     9   ar
     6     6     4    1
     7     5     4    1
     8     4     1    2
     9    18    12    1
    10    12    13   ar
    11    15     8    1
    12     9     8    1
    13     9    14   ar
    14     3     2    2
    15     8     2   am
    16     2     1    1
    17     1     7    1
    18    13    14   ar
    19    13    19    1
    20    14    20    1
