@<TRIPOS>MOLECULE
GS-699-0.out
 16 15 0 0 0
SMALL
MULLIKEN_CHARGES
****
Gaussian 16 # wB97XD def2tzvp, opt=(calcfc, maxcycles=70, maxstep=10), freq=norama
@<TRIPOS>ATOM
      1 C           0.7851    0.4700    0.0329 C.2     1  UNL1       -0.0420
      2 C           2.2285    0.0379   -0.0847 C.2     1  UNL1        0.2785
      3 O           2.8984    0.3485   -1.0574 O.2     1  UNL1       -0.4559
      4 C          -0.1746   -0.4415   -0.0724 C.2     1  UNL1       -0.0011
      5 BR         -2.0180    0.0803    0.0196 Br      1  UNL1       -0.1121
      6 C          -0.0199   -1.9116   -0.2940 C.3     1  UNL1       -0.3622
      7 H           1.0284   -2.1869   -0.3963 H       1  UNL1        0.1451
      8 H          -0.4465   -2.4738    0.5386 H       1  UNL1        0.1510
      9 H          -0.5466   -2.2136   -1.2005 H       1  UNL1        0.1499
     10 C           0.6321    1.9506    0.1990 C.3     1  UNL1       -0.3186
     11 H           1.1123    2.4633   -0.6364 H       1  UNL1        0.1450
     12 H          -0.4111    2.2511    0.2430 H       1  UNL1        0.1364
     13 H           1.1300    2.2812    1.1136 H       1  UNL1        0.1430
     14 N           2.7198   -0.6480    0.9598 N.am    1  UNL1       -0.4391
     15 H           3.6824   -0.9405    0.9549 H       1  UNL1        0.2826
     16 H           2.1476   -0.8744    1.7529 H       1  UNL1        0.2995
@<TRIPOS>BOND
     1     9     6    1
     2     3     2    2
     3    11    10    1
     4     7     6    1
     5     6     4    1
     6     6     8    1
     7     2     1    1
     8     2    14   am
     9     4     5    1
    10     4     1    2
    11     1    10    1
    12    10    12    1
    13    10    13    1
    14    15    14    1
    15    14    16    1
