@<TRIPOS>MOLECULE
GS-690-1.out
 14 13 0 0 0
SMALL
MULLIKEN_CHARGES
****
Gaussian 16 # wB97XD def2tzvp, opt=(calcfc, maxcycles=70, maxstep=1), freq=noraman
@<TRIPOS>ATOM
      1 C           0.8445   -0.4398   -0.0002 C.2     1  UNL1       -0.3084
      2 C           2.2839   -0.0683   -0.0002 C.2     1  UNL1        0.3357
      3 O           2.6981    1.0733   -0.0006 O.2     1  UNL1       -0.4174
      4 C          -0.1855    0.4059    0.0000 C.2     1  UNL1        0.1045
      5 BR         -1.9370   -0.3574   -0.0000 Br      1  UNL1       -0.0782
      6 C          -0.1911    1.8915    0.0004 C.3     1  UNL1       -0.3413
      7 H           0.8265    2.2699    0.0007 H       1  UNL1        0.1558
      8 H          -0.7222    2.2606   -0.8790 H       1  UNL1        0.1527
      9 H          -0.7226    2.2601    0.8798 H       1  UNL1        0.1527
     10 H           0.6464   -1.5038   -0.0004 H       1  UNL1        0.1727
     11 C           3.2237   -1.2442    0.0004 C.3     1  UNL1       -0.3797
     12 H           3.0364   -1.8671   -0.8772 H       1  UNL1        0.1562
     13 H           4.2560   -0.9036    0.0005 H       1  UNL1        0.1383
     14 H           3.0361   -1.8665    0.8784 H       1  UNL1        0.1563
@<TRIPOS>BOND
     1     8     6    1
     2    12    11    1
     3     3     2    2
     4    10     1    1
     5     1     2    1
     6     1     4    2
     7     2    11    1
     8     5     4    1
     9     4     6    1
    10    11    13    1
    11    11    14    1
    12     6     7    1
    13     6     9    1
