@<TRIPOS>MOLECULE
GS-682-0.out
 24 24 0 0 0
SMALL
MULLIKEN_CHARGES
****
Gaussian 16 # wB97XD def2tzvp, opt=(calcfc, maxcycles=70, maxstep=10), freq=norama
@<TRIPOS>ATOM
      1 C           0.3586    0.8390   -0.0187 C.2     1  UNL1       -0.1136
      2 C           0.3411    2.3449   -0.0223 C.2     1  UNL1        0.2587
      3 O           1.1654    2.9978   -0.6241 O.2     1  UNL1       -0.3895
      4 C           1.5165    0.1756    0.0197 C.2     1  UNL1        0.0465
      5 BR          1.4922   -1.7360   -0.0226 Br      1  UNL1       -0.0760
      6 C           2.9037    0.7152    0.1078 C.3     1  UNL1       -0.3594
      7 H           2.8995    1.7846    0.2951 H       1  UNL1        0.1469
      8 H           3.4497    0.2053    0.9019 H       1  UNL1        0.1479
      9 H           3.4354    0.5314   -0.8281 H       1  UNL1        0.1551
     10 C          -0.9766    0.1792   -0.0345 C.ar    1  UNL1        0.1703
     11 C          -1.5306   -0.3422    1.1307 C.ar    1  UNL1       -0.2113
     12 C          -2.7875   -0.9259    1.1087 C.ar    1  UNL1       -0.1448
     13 C          -3.5038   -0.9931   -0.0784 C.ar    1  UNL1       -0.1257
     14 C          -2.9589   -0.4713   -1.2426 C.ar    1  UNL1       -0.1511
     15 C          -1.7029    0.1168   -1.2195 C.ar    1  UNL1       -0.1846
     16 H          -0.9708   -0.2916    2.0566 H       1  UNL1        0.1562
     17 H          -3.2084   -1.3295    2.0209 H       1  UNL1        0.1455
     18 H          -4.4851   -1.4499   -0.0952 H       1  UNL1        0.1477
     19 H          -3.5125   -0.5203   -2.1715 H       1  UNL1        0.1456
     20 H          -1.2797    0.5267   -2.1288 H       1  UNL1        0.1468
     21 C          -0.7753    3.0032    0.7422 C.3     1  UNL1       -0.3723
     22 H          -0.8795    2.5607    1.7341 H       1  UNL1        0.1551
     23 H          -0.5827    4.0705    0.8197 H       1  UNL1        0.1454
     24 H          -1.7210    2.8419    0.2205 H       1  UNL1        0.1604
@<TRIPOS>BOND
     1    19    14    1
     2    20    15    1
     3    14    15   ar
     4    14    13   ar
     5    15    10   ar
     6     9     6    1
     7     3     2    2
     8    18    13    1
     9    13    12   ar
    10    10     1    1
    11    10    11   ar
    12     5     4    1
    13     2     1    1
    14     2    21    1
    15     1     4    2
    16     4     6    1
    17     6     7    1
    18     6     8    1
    19    24    21    1
    20    21    23    1
    21    21    22    1
    22    12    11   ar
    23    12    17    1
    24    11    16    1
