@<TRIPOS>MOLECULE
GS-642-0.out
 21 21 0 0 0
SMALL
MULLIKEN_CHARGES
****
Gaussian 16 # wB97XD def2tzvp, opt=(calcfc, maxcycles=70, maxstep=10), freq=norama
@<TRIPOS>ATOM
      1 C           0.3053    0.9677   -0.0000 C.2     1  UNL1       -0.1312
      2 C           0.0913    2.4625   -0.0001 C.2     1  UNL1        0.2772
      3 O           1.0283    3.2310   -0.0001 O.2     1  UNL1       -0.3976
      4 C           1.5674    0.5531   -0.0000 C.2     1  UNL1       -0.0576
      5 BR          2.0951   -1.2446    0.0001 Br      1  UNL1       -0.0268
      6 H           2.3948    1.2480   -0.0000 H       1  UNL1        0.1857
      7 C          -0.8655    0.0536   -0.0000 C.ar    1  UNL1        0.1287
      8 C          -1.4222   -0.3756    1.2008 C.ar    1  UNL1       -0.2031
      9 C          -2.5191   -1.2239    1.2005 C.ar    1  UNL1       -0.1441
     10 C          -3.0697   -1.6493   -0.0000 C.ar    1  UNL1       -0.1263
     11 C          -2.5188   -1.2243   -1.2005 C.ar    1  UNL1       -0.1440
     12 C          -1.4219   -0.3760   -1.2009 C.ar    1  UNL1       -0.2031
     13 H          -0.9923   -0.0438    2.1382 H       1  UNL1        0.1503
     14 H          -2.9436   -1.5535    2.1403 H       1  UNL1        0.1460
     15 H          -3.9263   -2.3112   -0.0000 H       1  UNL1        0.1478
     16 H          -2.9430   -1.5542   -2.1403 H       1  UNL1        0.1460
     17 H          -0.9917   -0.0445   -2.1382 H       1  UNL1        0.1503
     18 C          -1.3292    2.9474   -0.0001 C.3     1  UNL1       -0.3535
     19 H          -1.8558    2.5630    0.8758 H       1  UNL1        0.1563
     20 H          -1.3472    4.0341   -0.0002 H       1  UNL1        0.1427
     21 H          -1.8560    2.5627   -0.8757 H       1  UNL1        0.1563
@<TRIPOS>BOND
     1    16    11    1
     2    17    12    1
     3    12    11   ar
     4    12     7   ar
     5    11    10   ar
     6    21    18    1
     7    20    18    1
     8     3     2    2
     9     2    18    1
    10     2     1    1
    11    18    19    1
    12     6     4    1
    13     1     7    1
    14     1     4    2
    15     7     8   ar
    16    10    15    1
    17    10     9   ar
    18     4     5    1
    19     9     8   ar
    20     9    14    1
    21     8    13    1
