@<TRIPOS>MOLECULE
GS-676-0.out
 12 11 0 0 0
SMALL
MULLIKEN_CHARGES
****
Gaussian 16 # wB97XD def2tzvp, opt=(calcfc, maxcycles=70, maxstep=10), freq=norama
@<TRIPOS>ATOM
      1 C          -0.3678    0.0599    0.0000 C.2     1  UNL1       -0.0920
      2 C          -1.7379   -0.5484    0.0000 C.2     1  UNL1        0.4478
      3 O          -1.9189   -1.7402    0.0000 O.2     1  UNL1       -0.4120
      4 C           0.6774   -0.7594    0.0000 C.2     1  UNL1       -0.0828
      5 BR          2.4605   -0.2337   -0.0000 Br      1  UNL1        0.0047
      6 H           0.5183   -1.8274    0.0000 H       1  UNL1        0.2037
      7 CL         -0.2219    1.7739    0.0000 Cl      1  UNL1       -0.0512
      8 O          -2.6979    0.3571    0.0000 O.3     1  UNL1       -0.2655
      9 C          -4.0407   -0.1418   -0.0000 C.3     1  UNL1       -0.1999
     10 H          -4.6771    0.7372   -0.0000 H       1  UNL1        0.1539
     11 H          -4.2186   -0.7423   -0.8906 H       1  UNL1        0.1467
     12 H          -4.2186   -0.7423    0.8906 H       1  UNL1        0.1467
@<TRIPOS>BOND
     1    11     9    1
     2     9    10    1
     3     9     8    1
     4     9    12    1
     5     5     4    1
     6     6     4    1
     7     7     1    1
     8     8     2    1
     9     1     2    1
    10     1     4    2
    11     2     3    2
