@<TRIPOS>MOLECULE
GS-638-0.out
 26 26 0 0 0
SMALL
MULLIKEN_CHARGES
****
Gaussian 16 # wB97XD def2tzvp, opt=(calcfc, maxcycles=70, maxstep=10), freq=norama
@<TRIPOS>ATOM
      1 C          -0.7810    1.0073   -0.1821 C.2     1  UNL1        0.0141
      2 C           0.4170    1.9033   -0.4102 C.2     1  UNL1        0.2143
      3 O           0.5284    2.4529   -1.4985 O.2     1  UNL1       -0.4636
      4 C          -0.6950   -0.3183   -0.1197 C.2     1  UNL1       -0.0698
      5 BR         -2.2429   -1.3943    0.0692 Br      1  UNL1       -0.0388
      6 C           0.5891   -1.0496   -0.1864 C.ar    1  UNL1        0.2385
      7 C           0.9670   -1.9095    0.8436 C.ar    1  UNL1       -0.2627
      8 C           2.1889   -2.5575    0.7968 C.ar    1  UNL1       -0.1194
      9 C           3.0414   -2.3625   -0.2821 C.ar    1  UNL1       -0.1353
     10 C           2.6650   -1.5186   -1.3154 C.ar    1  UNL1       -0.1405
     11 C           1.4426   -0.8655   -1.2711 C.ar    1  UNL1       -0.2064
     12 H           0.3059   -2.0616    1.6875 H       1  UNL1        0.1587
     13 H           2.4779   -3.2154    1.6062 H       1  UNL1        0.1489
     14 H           3.9957   -2.8721   -0.3176 H       1  UNL1        0.1499
     15 H           3.3211   -1.3692   -2.1631 H       1  UNL1        0.1491
     16 H           1.1478   -0.2103   -2.0804 H       1  UNL1        0.1575
     17 CL         -2.2680    1.8802   -0.1390 Cl      1  UNL1       -0.0577
     18 N           1.2885    2.0413    0.5992 N.am    1  UNL1       -0.0774
     19 C           2.5126    2.7904    0.3877 C.3     1  UNL1       -0.2809
     20 C           1.1235    1.4899    1.9305 C.3     1  UNL1       -0.3178
     21 H           2.6247    3.0135   -0.6683 H       1  UNL1        0.1536
     22 H           2.4907    3.7235    0.9545 H       1  UNL1        0.1509
     23 H           3.3605    2.1936    0.7278 H       1  UNL1        0.1445
     24 H           0.1112    1.1293    2.0826 H       1  UNL1        0.1715
     25 H           1.8228    0.6666    2.0922 H       1  UNL1        0.1604
     26 H           1.3256    2.2715    2.6639 H       1  UNL1        0.1584
@<TRIPOS>BOND
     1    15    10    1
     2    16    11    1
     3     3     2    2
     4    10    11   ar
     5    10     9   ar
     6    11     6   ar
     7    21    19    1
     8     2     1    1
     9     2    18   am
    10    14     9    1
    11     9     8   ar
    12     6     4    1
    13     6     7   ar
    14     1    17    1
    15     1     4    2
    16     4     5    1
    17    19    18    1
    18    19    23    1
    19    19    22    1
    20    18    20    1
    21     8     7   ar
    22     8    13    1
    23     7    12    1
    24    20    24    1
    25    20    25    1
    26    20    26    1
