@<TRIPOS>MOLECULE
GS-686-0.out
 29 29 0 0 0
SMALL
MULLIKEN_CHARGES
****
Gaussian 16 # wB97XD def2tzvp, opt=(calcfc, maxcycles=70, maxstep=10), freq=norama
@<TRIPOS>ATOM
      1 C          -0.3669   -0.2657   -0.2578 C.2     1  UNL1       -0.0951
      2 C          -1.8411   -0.1498   -0.5867 C.2     1  UNL1        0.2502
      3 O          -2.1873   -0.1351   -1.7633 O.2     1  UNL1       -0.4802
      4 C           0.1764   -1.4740   -0.1798 C.2     1  UNL1        0.0307
      5 BR          2.0649   -1.6817    0.0292 Br      1  UNL1       -0.0862
      6 C          -0.5471   -2.7773   -0.2572 C.3     1  UNL1       -0.3751
      7 H          -1.6185   -2.6219   -0.3792 H       1  UNL1        0.1498
      8 H          -0.1836   -3.3697   -1.0983 H       1  UNL1        0.1540
      9 H          -0.3826   -3.3575    0.6524 H       1  UNL1        0.1519
     10 C           0.3323    1.0391   -0.1381 C.ar    1  UNL1        0.2079
     11 C           0.9691    1.4023    1.0463 C.ar    1  UNL1       -0.2548
     12 C           1.5934    2.6345    1.1592 C.ar    1  UNL1       -0.1414
     13 C           1.5862    3.5199    0.0909 C.ar    1  UNL1       -0.1340
     14 C           0.9460    3.1691   -1.0890 C.ar    1  UNL1       -0.1505
     15 C           0.3165    1.9390   -1.2017 C.ar    1  UNL1       -0.2321
     16 H           0.9767    0.7158    1.8835 H       1  UNL1        0.1692
     17 H           2.0846    2.9037    2.0856 H       1  UNL1        0.1448
     18 H           2.0750    4.4818    0.1791 H       1  UNL1        0.1466
     19 H           0.9350    3.8555   -1.9261 H       1  UNL1        0.1446
     20 H          -0.1873    1.6682   -2.1207 H       1  UNL1        0.1479
     21 N          -2.6971   -0.0213    0.4422 N.am    1  UNL1       -0.0844
     22 C          -4.1094    0.1902    0.1921 C.3     1  UNL1       -0.2812
     23 C          -2.3105   -0.0296    1.8388 C.3     1  UNL1       -0.2787
     24 H          -4.2849    0.2309   -0.8779 H       1  UNL1        0.1522
     25 H          -4.6920   -0.6252    0.6256 H       1  UNL1        0.1444
     26 H          -4.4295    1.1286    0.6499 H       1  UNL1        0.1417
     27 H          -1.2751   -0.3338    1.9516 H       1  UNL1        0.1607
     28 H          -2.4411    0.9626    2.2773 H       1  UNL1        0.1488
     29 H          -2.9386   -0.7362    2.3841 H       1  UNL1        0.1483
@<TRIPOS>BOND
     1    20    15    1
     2    19    14    1
     3     3     2    2
     4    15    14   ar
     5    15    10   ar
     6     8     6    1
     7    14    13   ar
     8    24    22    1
     9     2     1    1
    10     2    21   am
    11     7     6    1
    12     1     4    2
    13     1    10    1
    14     6     4    1
    15     6     9    1
    16     4     5    1
    17    10    11   ar
    18    13    18    1
    19    13    12   ar
    20    22    21    1
    21    22    25    1
    22    22    26    1
    23    21    23    1
    24    11    12   ar
    25    11    16    1
    26    12    17    1
    27    23    27    1
    28    23    28    1
    29    23    29    1
