@<TRIPOS>MOLECULE
GS-670-1.out
 16 15 0 0 0
SMALL
MULLIKEN_CHARGES
****
Gaussian 16 # wB97XD def2tzvp, opt=(calcfc, maxcycles=70, maxstep=1), freq=noraman
@<TRIPOS>ATOM
      1 C           0.2276    0.0577   -0.2377 C.2     1  UNL1       -0.1309
      2 C           1.6855   -0.0573   -0.6178 C.2     1  UNL1        0.3390
      3 O           2.0597    0.4680   -1.6576 O.2     1  UNL1       -0.4750
      4 C          -0.5962   -0.9661   -0.3731 C.2     1  UNL1       -0.1383
      5 BR         -2.4459   -0.9366   -0.0876 Br      1  UNL1       -0.0245
      6 H          -0.2206   -1.9348   -0.6732 H       1  UNL1        0.2058
      7 BR         -0.3003    1.7865    0.2840 Br      1  UNL1       -0.0148
      8 N           2.4819   -0.7554    0.2056 N.am    1  UNL1       -0.1026
      9 C           3.8704   -0.9662   -0.1605 C.3     1  UNL1       -0.2850
     10 C           2.1063   -1.2471    1.5191 C.3     1  UNL1       -0.2987
     11 H           4.0011   -0.7790   -1.2215 H       1  UNL1        0.1517
     12 H           4.5218   -0.2968    0.4063 H       1  UNL1        0.1508
     13 H           4.1448   -1.9968    0.0661 H       1  UNL1        0.1468
     14 H           1.1293   -0.8773    1.8122 H       1  UNL1        0.1704
     15 H           2.0902   -2.3387    1.5269 H       1  UNL1        0.1540
     16 H           2.8403   -0.9032    2.2496 H       1  UNL1        0.1515
@<TRIPOS>BOND
     1     3     2    2
     2    11     9    1
     3     6     4    1
     4     2     1    1
     5     2     8   am
     6     4     1    2
     7     4     5    1
     8     1     7    1
     9     9    13    1
    10     9     8    1
    11     9    12    1
    12     8    10    1
    13    10    15    1
    14    10    14    1
    15    10    16    1
