@<TRIPOS>MOLECULE
GS-696-0.out
 21 21 0 0 0
SMALL
MULLIKEN_CHARGES
****
Gaussian 16 # wB97XD def2tzvp, opt=(calcfc, maxcycles=70, maxstep=10), freq=norama
@<TRIPOS>ATOM
      1 C           0.5253    0.1255   -0.2899 C.2     1  UNL1       -0.3452
      2 C          -0.6964    0.9593   -0.1631 C.2     1  UNL1        0.3457
      3 O          -0.6612    2.1754   -0.1583 O.2     1  UNL1       -0.4146
      4 C           1.7328    0.4931    0.1334 C.2     1  UNL1        0.1218
      5 BR          3.1706   -0.7268   -0.1633 Br      1  UNL1       -0.0752
      6 C           2.1452    1.7346    0.8404 C.3     1  UNL1       -0.3513
      7 H           1.2763    2.3273    1.1118 H       1  UNL1        0.1522
      8 H           2.7217    1.4849    1.7316 H       1  UNL1        0.1510
      9 H           2.7866    2.3346    0.1912 H       1  UNL1        0.1574
     10 H           0.4008   -0.8447   -0.7508 H       1  UNL1        0.1925
     11 C          -2.0016    0.2375   -0.0711 C.ar    1  UNL1        0.1256
     12 C          -3.1712    0.9329   -0.3741 C.ar    1  UNL1       -0.2021
     13 C          -4.4011    0.3069   -0.2792 C.ar    1  UNL1       -0.1230
     14 C          -4.4755   -1.0173    0.1350 C.ar    1  UNL1       -0.1314
     15 C          -3.3175   -1.7131    0.4495 C.ar    1  UNL1       -0.1405
     16 C          -2.0835   -1.0912    0.3398 C.ar    1  UNL1       -0.2309
     17 H          -3.1013    1.9656   -0.6892 H       1  UNL1        0.1495
     18 H          -5.3043    0.8495   -0.5267 H       1  UNL1        0.1496
     19 H          -5.4382   -1.5064    0.2133 H       1  UNL1        0.1517
     20 H          -3.3742   -2.7419    0.7804 H       1  UNL1        0.1503
     21 H          -1.1883   -1.6421    0.5977 H       1  UNL1        0.1666
@<TRIPOS>BOND
     1    10     1    1
     2    17    12    1
     3    18    13    1
     4    12    13   ar
     5    12    11   ar
     6     1     2    1
     7     1     4    2
     8    13    14   ar
     9     5     4    1
    10     2     3    2
    11     2    11    1
    12    11    16   ar
    13     4     6    1
    14    14    19    1
    15    14    15   ar
    16     9     6    1
    17    16    15   ar
    18    16    21    1
    19    15    20    1
    20     6     7    1
    21     6     8    1
