@<TRIPOS>MOLECULE
GS-609-0.out
 18 18 0 0 0
SMALL
MULLIKEN_CHARGES
****
Gaussian 16 # wB97XD def2tzvp, opt=(calcfc, maxcycles=70, maxstep=10), freq=norama
@<TRIPOS>ATOM
      1 C           1.3247    1.3725   -0.0910 C.2     1  UNL1       -0.2115
      2 C           0.6097    2.6278   -0.3384 C.2     1  UNL1        0.1588
      3 O           1.1666    3.7031   -0.3514 O.2     1  UNL1       -0.3762
      4 C           0.7094    0.1900   -0.0065 C.2     1  UNL1        0.0258
      5 BR          1.7827   -1.3704    0.1581 Br      1  UNL1       -0.0418
      6 C          -0.7454   -0.0487    0.0003 C.ar    1  UNL1        0.2299
      7 C          -1.5445    0.5924    0.9449 C.ar    1  UNL1       -0.2867
      8 C          -2.9161    0.3893    0.9512 C.ar    1  UNL1       -0.1039
      9 C          -3.4982   -0.4515    0.0158 C.ar    1  UNL1       -0.1419
     10 C          -2.7048   -1.0981   -0.9236 C.ar    1  UNL1       -0.1330
     11 C          -1.3346   -0.9075   -0.9270 C.ar    1  UNL1       -0.2128
     12 H          -1.0879    1.2377    1.6845 H       1  UNL1        0.1747
     13 H          -3.5276    0.8877    1.6920 H       1  UNL1        0.1525
     14 H          -4.5690   -0.6090    0.0203 H       1  UNL1        0.1523
     15 H          -3.1559   -1.7554   -1.6554 H       1  UNL1        0.1514
     16 H          -0.7188   -1.4168   -1.6573 H       1  UNL1        0.1605
     17 H           2.4026    1.4459   -0.0222 H       1  UNL1        0.1697
     18 H          -0.4711    2.5524   -0.5404 H       1  UNL1        0.1323
@<TRIPOS>BOND
     1    16    11    1
     2    15    10    1
     3    11    10   ar
     4    11     6   ar
     5    10     9   ar
     6    18     2    1
     7     3     2    2
     8     2     1    1
     9     1    17    1
    10     1     4    2
    11     4     6    1
    12     4     5    1
    13     6     7   ar
    14     9    14    1
    15     9     8   ar
    16     7     8   ar
    17     7    12    1
    18     8    13    1
