@<TRIPOS>MOLECULE
GS-64-0.out
 31 32 0 0 0
SMALL
MULLIKEN_CHARGES
****
Gaussian 16 # wB97XD def2tzvp, opt=(calcfc, maxcycles=70, maxstep=10), freq=norama
@<TRIPOS>ATOM
      1 C           0.0692    0.3157    0.3659 C.2     1  UNL1       -0.0099
      2 C          -1.1875    1.0786    0.0723 C.2     1  UNL1        0.2823
      3 O          -1.1814    2.2853   -0.0755 O.2     1  UNL1       -0.3996
      4 C           1.1752    0.7494   -0.2504 C.2     1  UNL1       -0.1677
      5 C           2.5445    0.2271   -0.1736 C.ar    1  UNL1        0.2074
      6 C           2.8501   -1.1173    0.0496 C.ar    1  UNL1       -0.2418
      7 C           4.1682   -1.5427    0.1067 C.ar    1  UNL1       -0.1519
      8 C           5.2057   -0.6361   -0.0549 C.ar    1  UNL1       -0.1303
      9 C           4.9171    0.7006   -0.2942 C.ar    1  UNL1       -0.1523
     10 C           3.6006    1.1232   -0.3643 C.ar    1  UNL1       -0.2339
     11 H           2.0573   -1.8444    0.1524 H       1  UNL1        0.1720
     12 H           4.3846   -2.5903    0.2735 H       1  UNL1        0.1445
     13 H           6.2340   -0.9710   -0.0062 H       1  UNL1        0.1473
     14 H           5.7195    1.4140   -0.4336 H       1  UNL1        0.1450
     15 H           3.3805    2.1656   -0.5629 H       1  UNL1        0.1423
     16 H           1.0615    1.6294   -0.8763 H       1  UNL1        0.1540
     17 C          -0.0097   -0.8111    1.3595 C.3     1  UNL1       -0.4323
     18 H          -0.8457   -0.6618    2.0431 H       1  UNL1        0.1585
     19 H          -0.1541   -1.7837    0.8851 H       1  UNL1        0.1566
     20 H           0.9068   -0.8631    1.9472 H       1  UNL1        0.1688
     21 C          -2.4711    0.3198   -0.0376 C.ar    1  UNL1        0.1135
     22 C          -3.6563    0.9299    0.3657 C.ar    1  UNL1       -0.2089
     23 C          -4.8628    0.2635    0.2361 C.ar    1  UNL1       -0.1362
     24 C          -4.8964   -1.0084   -0.3211 C.ar    1  UNL1       -0.1264
     25 C          -3.7212   -1.6145   -0.7417 C.ar    1  UNL1       -0.1560
     26 C          -2.5103   -0.9576   -0.5895 C.ar    1  UNL1       -0.2186
     27 H          -3.6209    1.9263    0.7870 H       1  UNL1        0.1471
     28 H          -5.7792    0.7360    0.5654 H       1  UNL1        0.1483
     29 H          -5.8407   -1.5268   -0.4293 H       1  UNL1        0.1505
     30 H          -3.7471   -2.6007   -1.1868 H       1  UNL1        0.1482
     31 H          -1.5967   -1.4324   -0.9246 H       1  UNL1        0.1795
@<TRIPOS>BOND
     1    30    25    1
     2    31    26    1
     3    16     4    1
     4    25    26   ar
     5    25    24   ar
     6    26    21   ar
     7    15    10    1
     8    14     9    1
     9    29    24    1
    10    10     9   ar
    11    10     5   ar
    12    24    23   ar
    13     9     8   ar
    14     4     5    1
    15     4     1    2
    16     5     6   ar
    17     3     2    2
    18     8    13    1
    19     8     7   ar
    20    21     2    1
    21    21    22   ar
    22     6     7   ar
    23     6    11    1
    24     2     1    1
    25     7    12    1
    26    23    22   ar
    27    23    28    1
    28    22    27    1
    29     1    17    1
    30    19    17    1
    31    17    20    1
    32    17    18    1
