@<TRIPOS>MOLECULE
GS-608-0.out
 38 40 0 0 0
SMALL
MULLIKEN_CHARGES
****
Gaussian 16 # wb97xd def2tzvp opt=(calcfc, maxcycles=100, maxstep=10) freq=noraman
@<TRIPOS>ATOM
      1 C           0.7653    0.2151    0.3648 C.2     1  UNL1        0.0525
      2 C          -0.1544    1.2635    0.9540 C.2     1  UNL1        0.2404
      3 O           0.0998    1.7169    2.0490 O.2     1  UNL1       -0.3713
      4 C           0.2897   -0.9898    0.0545 C.2     1  UNL1       -0.0482
      5 BR          1.4286   -2.3064   -0.7275 Br      1  UNL1       -0.0579
      6 C          -1.1013   -1.4352    0.2737 C.ar    1  UNL1        0.1970
      7 C          -1.8808   -1.9018   -0.7836 C.ar    1  UNL1       -0.2436
      8 C          -3.2038   -2.2461   -0.5739 C.ar    1  UNL1       -0.1405
      9 C          -3.7593   -2.1459    0.6962 C.ar    1  UNL1       -0.1228
     10 C          -2.9835   -1.7037    1.7555 C.ar    1  UNL1       -0.1442
     11 C          -1.6584   -1.3504    1.5467 C.ar    1  UNL1       -0.2318
     12 H          -1.4527   -1.9757   -1.7754 H       1  UNL1        0.1584
     13 H          -3.8062   -2.5914   -1.4041 H       1  UNL1        0.1476
     14 H          -4.7945   -2.4180    0.8575 H       1  UNL1        0.1494
     15 H          -3.4066   -1.6337    2.7492 H       1  UNL1        0.1479
     16 H          -1.0513   -1.0101    2.3758 H       1  UNL1        0.1637
     17 C           2.1792    0.6475    0.2372 C.ar    1  UNL1        0.1950
     18 C           2.5218    1.6236   -0.6940 C.ar    1  UNL1       -0.1987
     19 C           3.8360    2.0511   -0.8086 C.ar    1  UNL1       -0.1580
     20 C           4.8153    1.5169    0.0160 C.ar    1  UNL1       -0.1300
     21 C           4.4760    0.5539    0.9564 C.ar    1  UNL1       -0.1280
     22 C           3.1641    0.1210    1.0676 C.ar    1  UNL1       -0.2804
     23 H           1.7595    2.0466   -1.3374 H       1  UNL1        0.1602
     24 H           4.0937    2.8043   -1.5422 H       1  UNL1        0.1452
     25 H           5.8407    1.8528   -0.0711 H       1  UNL1        0.1474
     26 H           5.2351    0.1384    1.6068 H       1  UNL1        0.1456
     27 H           2.8985   -0.6302    1.8007 H       1  UNL1        0.1550
     28 C          -1.3096    1.7527    0.1535 C.ar    1  UNL1        0.1226
     29 C          -2.3187    2.4631    0.8016 C.ar    1  UNL1       -0.2410
     30 C          -3.3978    2.9479    0.0858 C.ar    1  UNL1       -0.1183
     31 C          -3.4688    2.7415   -1.2869 C.ar    1  UNL1       -0.1206
     32 C          -2.4622    2.0455   -1.9398 C.ar    1  UNL1       -0.1588
     33 C          -1.3888    1.5451   -1.2209 C.ar    1  UNL1       -0.2164
     34 H          -2.2493    2.6197    1.8700 H       1  UNL1        0.1488
     35 H          -4.1860    3.4873    0.5947 H       1  UNL1        0.1497
     36 H          -4.3123    3.1239   -1.8475 H       1  UNL1        0.1518
     37 H          -2.5151    1.8875   -3.0089 H       1  UNL1        0.1487
     38 H          -0.6116    0.9927   -1.7327 H       1  UNL1        0.1839
@<TRIPOS>BOND
     1    37    32    1
     2    32    31   ar
     3    32    33   ar
     4    36    31    1
     5    12     7    1
     6    38    33    1
     7    24    19    1
     8    13     8    1
     9    23    18    1
    10    31    30   ar
    11    33    28   ar
    12    19    18   ar
    13    19    20   ar
    14     7     8   ar
    15     7     6   ar
    16     5     4    1
    17    18    17   ar
    18     8     9   ar
    19    25    20    1
    20    20    21   ar
    21     4     6    1
    22     4     1    2
    23    30    35    1
    24    30    29   ar
    25    28    29   ar
    26    28     2    1
    27    17     1    1
    28    17    22   ar
    29     6    11   ar
    30     1     2    1
    31     9    14    1
    32     9    10   ar
    33    29    34    1
    34     2     3    2
    35    21    22   ar
    36    21    26    1
    37    22    27    1
    38    11    10   ar
    39    11    16    1
    40    10    15    1
