@<TRIPOS>MOLECULE
GS-629-0.out
 23 23 0 0 0
SMALL
MULLIKEN_CHARGES
****
Gaussian 16 # wB97XD def2tzvp, opt=(calcfc, maxcycles=70, maxstep=10), freq=norama
@<TRIPOS>ATOM
      1 C           0.8204    0.5109    0.0448 C.2     1  UNL1       -0.0326
      2 C           0.2477    1.9079    0.1269 C.2     1  UNL1        0.2773
      3 O           0.4734    2.6253    1.0882 O.2     1  UNL1       -0.4553
      4 C           0.0558   -0.5779    0.0282 C.2     1  UNL1       -0.0306
      5 BR          0.7951   -2.3201   -0.0669 Br      1  UNL1       -0.0341
      6 C          -1.4222   -0.5307    0.1137 C.ar    1  UNL1        0.1358
      7 C          -2.2104   -1.0755   -0.8977 C.ar    1  UNL1       -0.2016
      8 C          -3.5900   -0.9887   -0.8254 C.ar    1  UNL1       -0.1419
      9 C          -4.1948   -0.3697    0.2609 C.ar    1  UNL1       -0.1289
     10 C          -3.4144    0.1612    1.2763 C.ar    1  UNL1       -0.1461
     11 C          -2.0320    0.0810    1.2056 C.ar    1  UNL1       -0.1882
     12 H          -1.7412   -1.5583   -1.7457 H       1  UNL1        0.1584
     13 H          -4.1956   -1.4046   -1.6202 H       1  UNL1        0.1494
     14 H          -5.2739   -0.3059    0.3162 H       1  UNL1        0.1505
     15 H          -3.8802    0.6373    2.1292 H       1  UNL1        0.1500
     16 H          -1.4220    0.4927    1.9995 H       1  UNL1        0.1617
     17 BR          2.7023    0.4912    0.0412 Br      1  UNL1       -0.0183
     18 N          -0.4882    2.2768   -0.9261 N.am    1  UNL1       -0.2735
     19 C          -1.1832    3.5454   -0.9654 C.3     1  UNL1       -0.2545
     20 H          -0.6406    1.6133   -1.6651 H       1  UNL1        0.2843
     21 H          -1.6647    3.6462   -1.9342 H       1  UNL1        0.1527
     22 H          -1.9410    3.5972   -0.1814 H       1  UNL1        0.1426
     23 H          -0.4827    4.3687   -0.8271 H       1  UNL1        0.1427
@<TRIPOS>BOND
     1    21    19    1
     2    12     7    1
     3    20    18    1
     4    13     8    1
     5    19    18    1
     6    19    23    1
     7    19    22    1
     8    18     2   am
     9     7     8   ar
    10     7     6   ar
    11     8     9   ar
    12     5     4    1
    13     4     1    2
    14     4     6    1
    15    17     1    1
    16     1     2    1
    17     6    11   ar
    18     2     3    2
    19     9    14    1
    20     9    10   ar
    21    11    10   ar
    22    11    16    1
    23    10    15    1
