@<TRIPOS>MOLECULE
GS-62-0.out
 29 29 0 0 0
SMALL
MULLIKEN_CHARGES
****
Gaussian 16 # wB97XD def2tzvp, opt=(calcfc, maxcycles=70, maxstep=10), freq=norama
@<TRIPOS>ATOM
      1 C           0.7784    0.6918   -0.1620 C.2     1  UNL1        0.0088
      2 C           2.2244    0.3985   -0.4605 C.2     1  UNL1        0.3082
      3 O           2.7672    0.9785   -1.3993 O.2     1  UNL1       -0.5083
      4 C          -0.1004   -0.3069   -0.2676 C.2     1  UNL1       -0.2404
      5 C          -1.5642   -0.2439   -0.1238 C.ar    1  UNL1        0.2458
      6 C          -2.1946    0.5354    0.8473 C.ar    1  UNL1       -0.2744
      7 C          -3.5772    0.5515    0.9552 C.ar    1  UNL1       -0.1330
      8 C          -4.3552   -0.2126    0.0979 C.ar    1  UNL1       -0.1450
      9 C          -3.7402   -1.0070   -0.8606 C.ar    1  UNL1       -0.1394
     10 C          -2.3592   -1.0284   -0.9625 C.ar    1  UNL1       -0.2527
     11 H          -1.5999    1.1151    1.5408 H       1  UNL1        0.1757
     12 H          -4.0474    1.1589    1.7185 H       1  UNL1        0.1438
     13 H          -5.4343   -0.1982    0.1829 H       1  UNL1        0.1456
     14 H          -4.3385   -1.6153   -1.5272 H       1  UNL1        0.1436
     15 H          -1.8841   -1.6567   -1.7071 H       1  UNL1        0.1399
     16 H           0.2876   -1.2909   -0.5173 H       1  UNL1        0.1606
     17 C           0.4665    2.1375    0.0811 C.3     1  UNL1       -0.4173
     18 H           1.1171    2.7591   -0.5342 H       1  UNL1        0.1439
     19 H          -0.5699    2.3753   -0.1520 H       1  UNL1        0.1522
     20 H           0.6487    2.4042    1.1260 H       1  UNL1        0.1498
     21 N           2.8685   -0.5163    0.2929 N.am    1  UNL1       -0.1103
     22 C           4.2183   -0.9082   -0.0625 C.3     1  UNL1       -0.2901
     23 C           2.3864   -1.0503    1.5532 C.3     1  UNL1       -0.2998
     24 H           4.4002   -0.6899   -1.1102 H       1  UNL1        0.1460
     25 H           4.9545   -0.3744    0.5451 H       1  UNL1        0.1436
     26 H           4.3352   -1.9785    0.1123 H       1  UNL1        0.1421
     27 H           1.4962   -0.5250    1.8822 H       1  UNL1        0.1676
     28 H           2.1562   -2.1145    1.4624 H       1  UNL1        0.1465
     29 H           3.1632   -0.9283    2.3110 H       1  UNL1        0.1469
@<TRIPOS>BOND
     1    15    10    1
     2    14     9    1
     3     3     2    2
     4    24    22    1
     5    10     9   ar
     6    10     5   ar
     7     9     8   ar
     8    18    17    1
     9    16     4    1
    10     2     1    1
    11     2    21   am
    12     4     1    2
    13     4     5    1
    14     1    17    1
    15    19    17    1
    16     5     6   ar
    17    22    26    1
    18    22    21    1
    19    22    25    1
    20    17    20    1
    21     8    13    1
    22     8     7   ar
    23    21    23    1
    24     6     7   ar
    25     6    11    1
    26     7    12    1
    27    28    23    1
    28    23    27    1
    29    23    29    1
