@<TRIPOS>MOLECULE
GS-681-1.out
 21 21 0 0 0
SMALL
MULLIKEN_CHARGES
****
Gaussian 16 # wB97XD def2tzvp, opt=(calcfc, maxcycles=70, maxstep=1), freq=noraman
@<TRIPOS>ATOM
      1 C          -0.4145    1.0083    0.0120 C.2     1  UNL1       -0.0668
      2 C          -0.5183    2.4927    0.0001 C.2     1  UNL1        0.1598
      3 O          -1.4802    3.1635    0.2874 O.2     1  UNL1       -0.3721
      4 C          -1.4945    0.2168   -0.0226 C.2     1  UNL1        0.0375
      5 BR         -1.2511   -1.6740   -0.0698 Br      1  UNL1       -0.0586
      6 C          -2.9308    0.6054   -0.0537 C.3     1  UNL1       -0.3584
      7 H          -3.0413    1.6751   -0.2002 H       1  UNL1        0.1514
      8 H          -3.4479    0.0612   -0.8442 H       1  UNL1        0.1509
      9 H          -3.4032    0.3351    0.8936 H       1  UNL1        0.1596
     10 C           0.9879    0.5079    0.0149 C.ar    1  UNL1        0.1762
     11 C           1.7437    0.5326   -1.1533 C.ar    1  UNL1       -0.2214
     12 C           3.0600    0.0946   -1.1462 C.ar    1  UNL1       -0.1357
     13 C           3.6340   -0.3645    0.0303 C.ar    1  UNL1       -0.1414
     14 C           2.8886   -0.3807    1.2010 C.ar    1  UNL1       -0.1310
     15 C           1.5733    0.0574    1.1943 C.ar    1  UNL1       -0.2154
     16 H           1.2960    0.8872   -2.0741 H       1  UNL1        0.1506
     17 H           3.6367    0.1114   -2.0622 H       1  UNL1        0.1465
     18 H           4.6611   -0.7064    0.0359 H       1  UNL1        0.1479
     19 H           3.3328   -0.7332    2.1232 H       1  UNL1        0.1465
     20 H           0.9917    0.0452    2.1080 H       1  UNL1        0.1517
     21 H           0.4281    2.9821   -0.2952 H       1  UNL1        0.1225
@<TRIPOS>BOND
     1    16    11    1
     2    17    12    1
     3    11    12   ar
     4    11    10   ar
     5    12    13   ar
     6     8     6    1
     7    21     2    1
     8     7     6    1
     9     5     4    1
    10     6     4    1
    11     6     9    1
    12     4     1    2
    13     2     1    1
    14     2     3    2
    15     1    10    1
    16    10    15   ar
    17    13    18    1
    18    13    14   ar
    19    15    14   ar
    20    15    20    1
    21    14    19    1
