@<TRIPOS>MOLECULE
GS-605-1.out
 33 34 0 0 0
SMALL
MULLIKEN_CHARGES
****
Gaussian 16 # wB97XD def2tzvp, opt=(calcfc, maxcycles=70, maxstep=1), freq=noraman
@<TRIPOS>ATOM
      1 C           0.4960    0.4578    0.0670 C.2     1  UNL1        0.0608
      2 C          -0.0193    1.8729    0.2034 C.2     1  UNL1        0.2293
      3 O           0.2564    2.5452    1.1876 O.2     1  UNL1       -0.4636
      4 C          -0.3609   -0.5590    0.0012 C.2     1  UNL1       -0.0145
      5 BR          0.2781   -2.3459   -0.2204 Br      1  UNL1       -0.0640
      6 C          -1.8328   -0.4497    0.1033 C.ar    1  UNL1        0.0813
      7 C          -2.6611   -0.9200   -0.9135 C.ar    1  UNL1       -0.2046
      8 C          -4.0340   -0.7670   -0.8212 C.ar    1  UNL1       -0.1498
      9 C          -4.5953   -0.1562    0.2927 C.ar    1  UNL1       -0.1237
     10 C          -3.7769    0.3004    1.3145 C.ar    1  UNL1       -0.1514
     11 C          -2.4012    0.1538    1.2223 C.ar    1  UNL1       -0.1896
     12 H          -2.2270   -1.3976   -1.7831 H       1  UNL1        0.1560
     13 H          -4.6684   -1.1251   -1.6216 H       1  UNL1        0.1475
     14 H          -5.6692   -0.0411    0.3644 H       1  UNL1        0.1492
     15 H          -4.2084    0.7695    2.1893 H       1  UNL1        0.1479
     16 H          -1.7623    0.5077    2.0214 H       1  UNL1        0.1595
     17 C           1.9758    0.3496    0.0669 C.ar    1  UNL1        0.1931
     18 C           2.7054    0.8435   -1.0105 C.ar    1  UNL1       -0.2052
     19 C           4.0900    0.7685   -1.0108 C.ar    1  UNL1       -0.1584
     20 C           4.7568    0.2131    0.0719 C.ar    1  UNL1       -0.1291
     21 C           4.0341   -0.2672    1.1551 C.ar    1  UNL1       -0.1358
     22 C           2.6497   -0.1993    1.1535 C.ar    1  UNL1       -0.2587
     23 H           2.1862    1.2821   -1.8544 H       1  UNL1        0.1471
     24 H           4.6484    1.1468   -1.8576 H       1  UNL1        0.1454
     25 H           5.8379    0.1576    0.0731 H       1  UNL1        0.1475
     26 H           4.5496   -0.6953    2.0054 H       1  UNL1        0.1454
     27 H           2.0848   -0.5734    1.9981 H       1  UNL1        0.1563
     28 N          -0.7377    2.3338   -0.8280 N.am    1  UNL1       -0.2681
     29 C          -1.3474    3.6454   -0.8128 C.3     1  UNL1       -0.2610
     30 H          -0.9525    1.7049   -1.5816 H       1  UNL1        0.2804
     31 H          -1.7887    3.8352   -1.7876 H       1  UNL1        0.1505
     32 H          -2.1262    3.7065   -0.0497 H       1  UNL1        0.1400
     33 H          -0.5987    4.4095   -0.6057 H       1  UNL1        0.1403
@<TRIPOS>BOND
     1    24    19    1
     2    23    18    1
     3    31    29    1
     4    12     7    1
     5    13     8    1
     6    30    28    1
     7    19    18   ar
     8    19    20   ar
     9    18    17   ar
    10     7     8   ar
    11     7     6   ar
    12    28    29    1
    13    28     2   am
    14     8     9   ar
    15    29    33    1
    16    29    32    1
    17     5     4    1
    18     4     1    2
    19     4     6    1
    20    17     1    1
    21    17    22   ar
    22     1     2    1
    23    20    25    1
    24    20    21   ar
    25     6    11   ar
    26     2     3    2
    27     9    14    1
    28     9    10   ar
    29    22    21   ar
    30    22    27    1
    31    21    26    1
    32    11    10   ar
    33    11    16    1
    34    10    15    1
