@<TRIPOS>MOLECULE
GS-610-2.out
 21 21 0 0 0
SMALL
MULLIKEN_CHARGES
****
Gaussian 16 # wB97XD def2tzvp, opt=(calcfc, maxcycles=70, maxstep=10), freq=norama
@<TRIPOS>ATOM
      1 C           1.3934    1.1458   -0.0153 C.2     1  UNL1       -0.2874
      2 C           0.8390    2.5249   -0.0831 C.2     1  UNL1        0.2838
      3 O           1.6105    3.4425    0.1191 O.2     1  UNL1       -0.3963
      4 C           0.7329   -0.0090   -0.0014 C.2     1  UNL1        0.0464
      5 BR          1.7638   -1.6174    0.0437 Br      1  UNL1       -0.0598
      6 C          -0.7240   -0.2474    0.0207 C.ar    1  UNL1        0.2419
      7 C          -1.3891   -0.6664   -1.1281 C.ar    1  UNL1       -0.2175
      8 C          -2.7591   -0.8671   -1.0998 C.ar    1  UNL1       -0.1184
      9 C          -3.4690   -0.6685    0.0768 C.ar    1  UNL1       -0.1430
     10 C          -2.8049   -0.2695    1.2273 C.ar    1  UNL1       -0.1038
     11 C          -1.4349   -0.0598    1.2017 C.ar    1  UNL1       -0.2681
     12 H          -0.8342   -0.8209   -2.0451 H       1  UNL1        0.1540
     13 H          -3.2741   -1.1795   -1.9990 H       1  UNL1        0.1501
     14 H          -4.5393   -0.8280    0.0967 H       1  UNL1        0.1508
     15 H          -3.3534   -0.1183    2.1479 H       1  UNL1        0.1504
     16 H          -0.9136    0.2580    2.0960 H       1  UNL1        0.1604
     17 H           2.4753    1.1364    0.0335 H       1  UNL1        0.1595
     18 C          -0.6003    2.7919   -0.4204 C.3     1  UNL1       -0.3525
     19 H          -0.9324    2.1845   -1.2619 H       1  UNL1        0.1487
     20 H          -1.2354    2.5388    0.4298 H       1  UNL1        0.1554
     21 H          -0.7146    3.8490   -0.6486 H       1  UNL1        0.1455
@<TRIPOS>BOND
     1    12     7    1
     2    13     8    1
     3    19    18    1
     4     7     8   ar
     5     7     6   ar
     6     8     9   ar
     7    21    18    1
     8    18     2    1
     9    18    20    1
    10     2     1    1
    11     2     3    2
    12     1     4    2
    13     1    17    1
    14     4     6    1
    15     4     5    1
    16     6    11   ar
    17     9    14    1
    18     9    10   ar
    19    11    10   ar
    20    11    16    1
    21    10    15    1
