@<TRIPOS>MOLECULE
GS-628-0.out
 22 22 0 0 0
SMALL
MULLIKEN_CHARGES
****
Gaussian 16 # wB97XD def2tzvp, opt=(calcfc, maxcycles=70, maxstep=10), freq=norama
@<TRIPOS>ATOM
      1 C           0.8280    0.5185    0.0225 C.2     1  UNL1       -0.0389
      2 C           0.2558    1.9075    0.0710 C.2     1  UNL1        0.3415
      3 O           0.5451    2.7131    0.9159 O.2     1  UNL1       -0.3824
      4 C           0.0581   -0.5677    0.0157 C.2     1  UNL1       -0.0441
      5 BR          0.7972   -2.3077   -0.0522 Br      1  UNL1       -0.0232
      6 C          -1.4175   -0.5173    0.1079 C.ar    1  UNL1        0.2425
      7 C          -2.2137   -1.0845   -0.8844 C.ar    1  UNL1       -0.2240
      8 C          -3.5920   -0.9957   -0.8015 C.ar    1  UNL1       -0.1404
      9 C          -4.1879   -0.3533    0.2767 C.ar    1  UNL1       -0.1344
     10 C          -3.3993    0.1982    1.2741 C.ar    1  UNL1       -0.1346
     11 C          -2.0174    0.1156    1.1929 C.ar    1  UNL1       -0.2298
     12 H          -1.7517   -1.5840   -1.7265 H       1  UNL1        0.1585
     13 H          -4.2047   -1.4281   -1.5819 H       1  UNL1        0.1496
     14 H          -5.2664   -0.2885    0.3396 H       1  UNL1        0.1508
     15 H          -3.8576    0.6909    2.1217 H       1  UNL1        0.1508
     16 H          -1.4018    0.5376    1.9775 H       1  UNL1        0.1681
     17 BR          2.7080    0.4975    0.0450 Br      1  UNL1       -0.0095
     18 O          -0.5762    2.1264   -0.9322 O.3     1  UNL1       -0.2518
     19 C          -1.2572    3.3872   -0.9297 C.3     1  UNL1       -0.2004
     20 H          -1.8888    3.3782   -1.8121 H       1  UNL1        0.1544
     21 H          -1.8620    3.4804   -0.0284 H       1  UNL1        0.1482
     22 H          -0.5401    4.2047   -0.9801 H       1  UNL1        0.1492
@<TRIPOS>BOND
     1    20    19    1
     2    12     7    1
     3    13     8    1
     4    22    19    1
     5    18    19    1
     6    18     2    1
     7    19    21    1
     8     7     8   ar
     9     7     6   ar
    10     8     9   ar
    11     5     4    1
    12     4     1    2
    13     4     6    1
    14     1    17    1
    15     1     2    1
    16     2     3    2
    17     6    11   ar
    18     9    14    1
    19     9    10   ar
    20    11    10   ar
    21    11    16    1
    22    10    15    1
