@<TRIPOS>MOLECULE
GS-640-0.out
 28 29 0 0 0
SMALL
MULLIKEN_CHARGES
****
Gaussian 16 # wB97XD def2tzvp, opt=(calcfc, maxcycles=70, maxstep=10), freq=norama
@<TRIPOS>ATOM
      1 C          -0.8751   -1.1826    0.3427 C.2     1  UNL1        0.0392
      2 C           0.4970   -1.5665    0.8580 C.2     1  UNL1        0.2240
      3 O           0.5840   -2.1776    1.8975 O.2     1  UNL1       -0.3499
      4 C          -1.2335    0.0767    0.0965 C.2     1  UNL1       -0.0775
      5 BR         -2.9662    0.5000   -0.5357 Br      1  UNL1       -0.0295
      6 C          -0.3376    1.2290    0.3235 C.ar    1  UNL1        0.2467
      7 C          -0.0194    2.0986   -0.7181 C.ar    1  UNL1       -0.2291
      8 C           0.8692    3.1369   -0.5074 C.ar    1  UNL1       -0.1364
      9 C           1.4368    3.3276    0.7470 C.ar    1  UNL1       -0.1266
     10 C           1.1073    2.4784    1.7909 C.ar    1  UNL1       -0.1389
     11 C           0.2210    1.4322    1.5820 C.ar    1  UNL1       -0.2317
     12 H          -0.4545    1.9475   -1.6979 H       1  UNL1        0.1604
     13 H           1.1239    3.7990   -1.3247 H       1  UNL1        0.1493
     14 H           2.1311    4.1420    0.9086 H       1  UNL1        0.1507
     15 H           1.5377    2.6281    2.7725 H       1  UNL1        0.1500
     16 H          -0.0417    0.7730    2.3995 H       1  UNL1        0.1669
     17 CL         -1.9392   -2.5301    0.1828 Cl      1  UNL1       -0.0578
     18 C           1.6856   -1.2065    0.0443 C.ar    1  UNL1        0.1319
     19 C           1.5860   -0.9470   -1.3200 C.ar    1  UNL1       -0.2139
     20 C           2.7230   -0.6533   -2.0543 C.ar    1  UNL1       -0.1387
     21 C           3.9588   -0.6001   -1.4263 C.ar    1  UNL1       -0.1230
     22 C           4.0625   -0.8542   -0.0638 C.ar    1  UNL1       -0.1142
     23 C           2.9316   -1.1660    0.6678 C.ar    1  UNL1       -0.2308
     24 H           0.6223   -0.9803   -1.8114 H       1  UNL1        0.1721
     25 H           2.6435   -0.4607   -3.1160 H       1  UNL1        0.1509
     26 H           4.8452   -0.3589   -1.9991 H       1  UNL1        0.1531
     27 H           5.0268   -0.8077    0.4251 H       1  UNL1        0.1511
     28 H           2.9983   -1.3682    1.7286 H       1  UNL1        0.1518
@<TRIPOS>BOND
     1    25    20    1
     2    20    21   ar
     3    20    19   ar
     4    26    21    1
     5    24    19    1
     6    12     7    1
     7    21    22   ar
     8    13     8    1
     9    19    18   ar
    10     7     8   ar
    11     7     6   ar
    12     5     4    1
    13     8     9   ar
    14    22    27    1
    15    22    23   ar
    16    18    23   ar
    17    18     2    1
    18     4     6    1
    19     4     1    2
    20    17     1    1
    21     6    11   ar
    22     1     2    1
    23    23    28    1
    24     9    14    1
    25     9    10   ar
    26     2     3    2
    27    11    10   ar
    28    11    16    1
    29    10    15    1
