@<TRIPOS>MOLECULE
GS-643-0.out
 20 20 0 0 0
SMALL
MULLIKEN_CHARGES
****
Gaussian 16 # wB97XD def2tzvp, opt=(calcfc, maxcycles=70, maxstep=10), freq=norama
@<TRIPOS>ATOM
      1 C          -0.3496    0.9493   -0.0001 C.2     1  UNL1       -0.0750
      2 C          -0.2281    2.4551   -0.0005 C.2     1  UNL1        0.3206
      3 O          -1.2064    3.1882   -0.0001 O.2     1  UNL1       -0.4759
      4 C          -1.5856    0.4690   -0.0000 C.2     1  UNL1       -0.0749
      5 BR         -2.0103   -1.3579    0.0005 Br      1  UNL1       -0.0339
      6 H          -2.4481    1.1190   -0.0001 H       1  UNL1        0.1896
      7 C           0.8732    0.1059   -0.0001 C.ar    1  UNL1        0.0390
      8 C           1.4557   -0.2874   -1.2018 C.ar    1  UNL1       -0.1811
      9 C           2.6028   -1.0663   -1.2008 C.ar    1  UNL1       -0.1465
     10 C           3.1789   -1.4554    0.0000 C.ar    1  UNL1       -0.1163
     11 C           2.6048   -1.0633    1.2008 C.ar    1  UNL1       -0.1465
     12 C           1.4576   -0.2843    1.2018 C.ar    1  UNL1       -0.1812
     13 H           1.0051    0.0169   -2.1386 H       1  UNL1        0.1481
     14 H           3.0467   -1.3698   -2.1402 H       1  UNL1        0.1471
     15 H           4.0747   -2.0630    0.0001 H       1  UNL1        0.1492
     16 H           3.0502   -1.3644    2.1403 H       1  UNL1        0.1471
     17 H           1.0086    0.0223    2.1385 H       1  UNL1        0.1481
     18 N           1.0302    2.9265   -0.0012 N.am    1  UNL1       -0.4337
     19 H           1.1778    3.9207   -0.0015 H       1  UNL1        0.2799
     20 H           1.8282    2.3169   -0.0016 H       1  UNL1        0.2963
@<TRIPOS>BOND
     1    14     9    1
     2    13     8    1
     3     8     9   ar
     4     8     7   ar
     5     9    10   ar
     6    20    18    1
     7    19    18    1
     8    18     2   am
     9     2     1    1
    10     2     3    2
    11     1     7    1
    12     1     4    2
    13     6     4    1
    14     7    12   ar
    15     4     5    1
    16    10    15    1
    17    10    11   ar
    18    11    12   ar
    19    11    16    1
    20    12    17    1
