@<TRIPOS>MOLECULE
GS-650-0.out
 11 10 0 0 0
SMALL
MULLIKEN_CHARGES
****
Gaussian 16 # wB97XD def2tzvp, opt=(calcfc, maxcycles=70, maxstep=10), freq=norama
@<TRIPOS>ATOM
      1 C           0.8474   -0.3818    0.0003 C.2     1  UNL1       -0.2613
      2 C           2.2469    0.1322    0.0001 C.2     1  UNL1        0.3099
      3 O           2.4957    1.3194    0.0001 O.2     1  UNL1       -0.4047
      4 C          -0.1718    0.4627   -0.0002 C.2     1  UNL1       -0.0547
      5 BR         -1.9658   -0.0813   -0.0000 Br      1  UNL1       -0.0332
      6 H          -0.0406    1.5359   -0.0007 H       1  UNL1        0.1900
      7 H           0.6982   -1.4541    0.0007 H       1  UNL1        0.1770
      8 C           3.3207   -0.9167   -0.0002 C.3     1  UNL1       -0.3765
      9 H           3.2070   -1.5576    0.8772 H       1  UNL1        0.1570
     10 H           3.2065   -1.5576   -0.8776 H       1  UNL1        0.1570
     11 H           4.3056   -0.4566   -0.0005 H       1  UNL1        0.1396
@<TRIPOS>BOND
     1    10     8    1
     2     6     4    1
     3    11     8    1
     4     8     2    1
     5     8     9    1
     6     4     5    1
     7     4     1    2
     8     2     3    2
     9     2     1    1
    10     1     7    1
