@<TRIPOS>MOLECULE
GS-678-0.out
 16 15 0 0 0
SMALL
MULLIKEN_CHARGES
****
Gaussian 16 # wB97XD def2tzvp, opt=(calcfc, maxcycles=70, maxstep=10), freq=norama
@<TRIPOS>ATOM
      1 C           0.1653    0.0470   -0.3207 C.2     1  UNL1       -0.0540
      2 C           1.5768   -0.4534   -0.5441 C.2     1  UNL1        0.3259
      3 O           1.8240   -1.0673   -1.5730 O.2     1  UNL1       -0.4735
      4 C          -0.8072   -0.7814    0.0162 C.2     1  UNL1       -0.1578
      5 BR         -2.6053   -0.3089    0.2273 Br      1  UNL1       -0.0290
      6 H          -0.5998   -1.8264    0.1959 H       1  UNL1        0.2031
      7 CL         -0.0638    1.7272   -0.6437 Cl      1  UNL1       -0.0562
      8 N           2.4795   -0.1654    0.4052 N.am    1  UNL1       -0.1013
      9 C           3.8715   -0.5237    0.2098 C.3     1  UNL1       -0.2797
     10 C           2.1797    0.5080    1.6544 C.3     1  UNL1       -0.2934
     11 H           4.0102   -0.9050   -0.7966 H       1  UNL1        0.1519
     12 H           4.4977    0.3579    0.3567 H       1  UNL1        0.1443
     13 H           4.1684   -1.2881    0.9308 H       1  UNL1        0.1489
     14 H           1.1081    0.5772    1.8151 H       1  UNL1        0.1691
     15 H           2.6123   -0.0609    2.4786 H       1  UNL1        0.1484
     16 H           2.6084    1.5123    1.6596 H       1  UNL1        0.1535
@<TRIPOS>BOND
     1     3     2    2
     2    11     9    1
     3     7     1    1
     4     2     1    1
     5     2     8   am
     6     1     4    2
     7     4     6    1
     8     4     5    1
     9     9    12    1
    10     9     8    1
    11     9    13    1
    12     8    10    1
    13    10    16    1
    14    10    14    1
    15    10    15    1
