@<TRIPOS>MOLECULE
GS-646-0.out
 26 26 0 0 0
SMALL
MULLIKEN_CHARGES
****
Gaussian 16 # wB97XD def2tzvp, opt=(calcfc, maxcycles=70, maxstep=10), freq=norama
@<TRIPOS>ATOM
      1 C          -0.1849   -0.5820   -0.2259 C.2     1  UNL1       -0.0884
      2 C          -1.5759   -1.1188   -0.5043 C.2     1  UNL1        0.2529
      3 O          -1.8255   -1.6157   -1.5973 O.2     1  UNL1       -0.4809
      4 C           0.7831   -1.4836   -0.1465 C.2     1  UNL1       -0.1224
      5 BR          2.6256   -1.1157    0.0189 Br      1  UNL1       -0.0583
      6 H           0.5856   -2.5438   -0.2090 H       1  UNL1        0.1888
      7 C          -0.0583    0.8928   -0.1657 C.ar    1  UNL1        0.1909
      8 C           0.6408    1.5286    0.8578 C.ar    1  UNL1       -0.2490
      9 C           0.7214    2.9114    0.8987 C.ar    1  UNL1       -0.1324
     10 C           0.1039    3.6762   -0.0805 C.ar    1  UNL1       -0.1329
     11 C          -0.6047    3.0515   -1.0967 C.ar    1  UNL1       -0.1557
     12 C          -0.6922    1.6691   -1.1348 C.ar    1  UNL1       -0.2147
     13 H           1.1111    0.9399    1.6345 H       1  UNL1        0.1701
     14 H           1.2642    3.3923    1.7024 H       1  UNL1        0.1462
     15 H           0.1684    4.7563   -0.0474 H       1  UNL1        0.1481
     16 H          -1.0942    3.6413   -1.8610 H       1  UNL1        0.1468
     17 H          -1.2501    1.1860   -1.9280 H       1  UNL1        0.1501
     18 N          -2.4883   -0.9728    0.4724 N.am    1  UNL1       -0.0852
     19 C          -3.8756   -1.3165    0.2304 C.3     1  UNL1       -0.2843
     20 C          -2.1916   -0.4588    1.7954 C.3     1  UNL1       -0.2939
     21 H          -4.0153   -1.5390   -0.8226 H       1  UNL1        0.1499
     22 H          -4.1623   -2.1873    0.8242 H       1  UNL1        0.1467
     23 H          -4.5128   -0.4766    0.5136 H       1  UNL1        0.1421
     24 H          -1.1276   -0.5142    2.0046 H       1  UNL1        0.1625
     25 H          -2.5236    0.5774    1.8973 H       1  UNL1        0.1500
     26 H          -2.7137   -1.0670    2.5350 H       1  UNL1        0.1530
@<TRIPOS>BOND
     1    17    12    1
     2    16    11    1
     3     3     2    2
     4    12    11   ar
     5    12     7   ar
     6    11    10   ar
     7    21    19    1
     8     2     1    1
     9     2    18   am
    10     1     7    1
    11     1     4    2
    12     6     4    1
    13     7     8   ar
    14     4     5    1
    15    10    15    1
    16    10     9   ar
    17    19    18    1
    18    19    23    1
    19    19    22    1
    20    18    20    1
    21     8     9   ar
    22     8    13    1
    23     9    14    1
    24    20    25    1
    25    20    24    1
    26    20    26    1
