@<TRIPOS>MOLECULE
GS-639-1.out
 30 31 0 0 0
SMALL
MULLIKEN_CHARGES
****
Gaussian 16 # wB97XD def2tzvp, opt=(calcfc, maxcycles=70, maxstep=1), freq=noraman
@<TRIPOS>ATOM
      1 C          -0.6454   -1.1040    0.3166 C.2     1  UNL1       -0.0579
      2 C           0.6880   -0.5025    0.7164 C.2     1  UNL1        0.3641
      3 O           0.7974    0.1294    1.7471 O.2     1  UNL1       -0.4281
      4 C          -1.6920   -0.3427    0.0134 C.2     1  UNL1       -0.0406
      5 BR         -3.3892   -1.1001   -0.3406 Br      1  UNL1       -0.0323
      6 C          -1.6124    1.1307   -0.0867 C.ar    1  UNL1        0.2039
      7 C          -2.3895    1.9409    0.7383 C.ar    1  UNL1       -0.2104
      8 C          -2.2808    3.3182    0.6599 C.ar    1  UNL1       -0.1479
      9 C          -1.4047    3.8994   -0.2483 C.ar    1  UNL1       -0.1265
     10 C          -0.6397    3.0972   -1.0804 C.ar    1  UNL1       -0.1499
     11 C          -0.7438    1.7165   -1.0031 C.ar    1  UNL1       -0.2029
     12 H          -3.0717    1.4898    1.4478 H       1  UNL1        0.1579
     13 H          -2.8802    3.9412    1.3109 H       1  UNL1        0.1490
     14 H          -1.3233    4.9770   -0.3086 H       1  UNL1        0.1502
     15 H           0.0378    3.5441   -1.7964 H       1  UNL1        0.1492
     16 H          -0.1535    1.0912   -1.6607 H       1  UNL1        0.1653
     17 CL         -0.6838   -2.8295    0.3713 Cl      1  UNL1       -0.0474
     18 N           1.6811   -0.7619   -0.1638 N.am    1  UNL1       -0.2635
     19 C           3.0373   -0.3886   -0.1074 C.ar    1  UNL1        0.3115
     20 C           3.5825    0.3742    0.9219 C.ar    1  UNL1       -0.2882
     21 C           4.9323    0.6968    0.8878 C.ar    1  UNL1       -0.1107
     22 C           5.7440    0.2739   -0.1522 C.ar    1  UNL1       -0.1810
     23 C           5.1938   -0.4853   -1.1764 C.ar    1  UNL1       -0.0980
     24 C           3.8512   -0.8154   -1.1566 C.ar    1  UNL1       -0.2994
     25 H           1.4197   -1.2978   -0.9762 H       1  UNL1        0.2785
     26 H           2.9594    0.7099    1.7343 H       1  UNL1        0.1658
     27 H           5.3484    1.2901    1.6921 H       1  UNL1        0.1466
     28 H           6.7946    0.5324   -0.1672 H       1  UNL1        0.1454
     29 H           5.8120   -0.8242   -1.9977 H       1  UNL1        0.1483
     30 H           3.4288   -1.4082   -1.9595 H       1  UNL1        0.1489
@<TRIPOS>BOND
     1    29    23    1
     2    30    24    1
     3    15    10    1
     4    16    11    1
     5    23    24   ar
     6    23    22   ar
     7    24    19   ar
     8    10    11   ar
     9    10     9   ar
    10    11     6   ar
    11    25    18    1
    12     5     4    1
    13    14     9    1
    14     9     8   ar
    15    28    22    1
    16    18    19    1
    17    18     2   am
    18    22    21   ar
    19    19    20   ar
    20     6     4    1
    21     6     7   ar
    22     4     1    2
    23     1    17    1
    24     1     2    1
    25     8     7   ar
    26     8    13    1
    27     2     3    2
    28     7    12    1
    29    21    20   ar
    30    21    27    1
    31    20    26    1
