@<TRIPOS>MOLECULE
GS-664-0.out
 21 21 0 0 0
SMALL
MULLIKEN_CHARGES
****
Gaussian 16 # wB97XD def2tzvp, opt=(calcfc, maxcycles=70, maxstep=10), freq=norama
@<TRIPOS>ATOM
      1 C          -0.6328    0.2900    0.3689 C.2     1  UNL1       -0.0516
      2 C           0.6081    1.0698    0.0322 C.2     1  UNL1        0.2840
      3 O           0.5554    2.2619   -0.1886 O.2     1  UNL1       -0.3844
      4 C          -1.6943    0.5681   -0.3770 C.2     1  UNL1       -0.1121
      5 BR         -3.3602   -0.2816   -0.1711 Br      1  UNL1       -0.0552
      6 H          -1.6833    1.2986   -1.1721 H       1  UNL1        0.1887
      7 C          -0.6062   -0.7133    1.4851 C.3     1  UNL1       -0.4111
      8 H           0.3370   -0.6796    2.0267 H       1  UNL1        0.1612
      9 H          -1.4137   -0.5068    2.1891 H       1  UNL1        0.1601
     10 H          -0.7490   -1.7298    1.1125 H       1  UNL1        0.1595
     11 C           1.9050    0.3356   -0.0321 C.ar    1  UNL1        0.0910
     12 C           3.0873    1.0347    0.2010 C.ar    1  UNL1       -0.2029
     13 C           4.3075    0.3883    0.1103 C.ar    1  UNL1       -0.1288
     14 C           4.3558   -0.9567   -0.2340 C.ar    1  UNL1       -0.1268
     15 C           3.1826   -1.6552   -0.4812 C.ar    1  UNL1       -0.1478
     16 C           1.9593   -1.0139   -0.3708 C.ar    1  UNL1       -0.1985
     17 H           3.0375    2.0846    0.4588 H       1  UNL1        0.1498
     18 H           5.2228    0.9319    0.3051 H       1  UNL1        0.1501
     19 H           5.3108   -1.4609   -0.3106 H       1  UNL1        0.1520
     20 H           3.2201   -2.7005   -0.7586 H       1  UNL1        0.1506
     21 H           1.0476   -1.5630   -0.5695 H       1  UNL1        0.1722
@<TRIPOS>BOND
     1     6     4    1
     2    20    15    1
     3    21    16    1
     4    15    16   ar
     5    15    14   ar
     6     4     5    1
     7     4     1    2
     8    16    11   ar
     9    19    14    1
    10    14    13   ar
    11     3     2    2
    12    11     2    1
    13    11    12   ar
    14     2     1    1
    15    13    12   ar
    16    13    18    1
    17    12    17    1
    18     1     7    1
    19    10     7    1
    20     7     8    1
    21     7     9    1
