@<TRIPOS>MOLECULE
GS-68-1.out
 22 22 0 0 0
SMALL
MULLIKEN_CHARGES
****
Gaussian 16 # wB97XD def2tzvp, opt=(maxcycles=70, maxstep=1), freq=noraman, scrf=(
@<TRIPOS>ATOM
      1 C           0.8100    0.2718    0.0692 C.2     1  UNL1       -0.0846
      2 C           2.1237    0.9850    0.1357 C.2     1  UNL1        0.4514
      3 O           2.2135    2.1757    0.3150 O.2     1  UNL1       -0.4233
      4 C          -0.3066    0.9954    0.1620 C.2     1  UNL1       -0.1432
      5 C          -1.7215    0.6218    0.1189 C.ar    1  UNL1        0.2277
      6 C          -2.2324   -0.5648    0.6475 C.ar    1  UNL1       -0.2340
      7 C          -3.5904   -0.8320    0.5851 C.ar    1  UNL1       -0.1402
      8 C          -4.4571    0.0722   -0.0120 C.ar    1  UNL1       -0.1299
      9 C          -3.9629    1.2619   -0.5284 C.ar    1  UNL1       -0.1470
     10 C          -2.6094    1.5402   -0.4486 C.ar    1  UNL1       -0.2284
     11 H          -1.5739   -1.2722    1.1300 H       1  UNL1        0.1624
     12 H          -3.9734   -1.7516    1.0085 H       1  UNL1        0.1478
     13 H          -5.5164   -0.1442   -0.0640 H       1  UNL1        0.1499
     14 H          -4.6338    1.9784   -0.9843 H       1  UNL1        0.1480
     15 H          -2.2283    2.4769   -0.8373 H       1  UNL1        0.1475
     16 H          -0.1170    2.0613    0.2489 H       1  UNL1        0.1762
     17 BR          0.8470   -1.5990   -0.2140 Br      1  UNL1       -0.0484
     18 O           3.1647    0.1843   -0.0220 O.3     1  UNL1       -0.2690
     19 C           4.4541    0.8018    0.0265 C.3     1  UNL1       -0.2016
     20 H           5.1684   -0.0027   -0.1179 H       1  UNL1        0.1515
     21 H           4.5487    1.5421   -0.7666 H       1  UNL1        0.1437
     22 H           4.6083    1.2790    0.9932 H       1  UNL1        0.1435
@<TRIPOS>BOND
     1    14     9    1
     2    15    10    1
     3    21    19    1
     4     9    10   ar
     5     9     8   ar
     6    10     5   ar
     7    17     1    1
     8    20    19    1
     9    13     8    1
    10    18    19    1
    11    18     2    1
    12     8     7   ar
    13    19    22    1
    14     1     2    1
    15     1     4    2
    16     5     4    1
    17     5     6   ar
    18     2     3    2
    19     4    16    1
    20     7     6   ar
    21     7    12    1
    22     6    11    1
