@<TRIPOS>MOLECULE
GS-60-0.out
 25 25 0 0 0
SMALL
MULLIKEN_CHARGES
****
Gaussian 16 # wB97XD def2tzvp, opt=(calcfc, maxcycles=70, maxstep=10), freq=norama
@<TRIPOS>ATOM
      1 C           1.0073    0.2217    0.1108 C.2     1  UNL1       -0.0551
      2 C           2.3665   -0.3682   -0.0841 C.2     1  UNL1        0.4410
      3 O           2.5961   -1.5081   -0.4178 O.2     1  UNL1       -0.4419
      4 C          -0.0209   -0.5885   -0.1645 C.2     1  UNL1       -0.1426
      5 C          -1.4575   -0.2898   -0.1065 C.ar    1  UNL1        0.2141
      6 C          -1.9959    0.9297   -0.5207 C.ar    1  UNL1       -0.2715
      7 C          -3.3624    1.1552   -0.4609 C.ar    1  UNL1       -0.1351
      8 C          -4.2141    0.1689    0.0151 C.ar    1  UNL1       -0.1372
      9 C          -3.6934   -1.0548    0.4138 C.ar    1  UNL1       -0.1448
     10 C          -2.3299   -1.2851    0.3407 C.ar    1  UNL1       -0.2359
     11 H          -1.3467    1.6980   -0.9187 H       1  UNL1        0.1813
     12 H          -3.7634    2.1043   -0.7935 H       1  UNL1        0.1454
     13 H          -5.2806    0.3484    0.0640 H       1  UNL1        0.1474
     14 H          -4.3523   -1.8341    0.7751 H       1  UNL1        0.1453
     15 H          -1.9288   -2.2459    0.6412 H       1  UNL1        0.1436
     16 H           0.2302   -1.6063   -0.4457 H       1  UNL1        0.1603
     17 C           0.9112    1.6316    0.6137 C.3     1  UNL1       -0.4014
     18 H           1.6358    1.8018    1.4089 H       1  UNL1        0.1424
     19 H           1.1274    2.3537   -0.1770 H       1  UNL1        0.1489
     20 H          -0.0836    1.8407    1.0015 H       1  UNL1        0.1537
     21 O           3.3317    0.5226    0.1445 O.3     1  UNL1       -0.2786
     22 C           4.6738    0.0664   -0.0223 C.3     1  UNL1       -0.2033
     23 H           5.3057    0.9206    0.2022 H       1  UNL1        0.1465
     24 H           4.8866   -0.7522    0.6643 H       1  UNL1        0.1387
     25 H           4.8387   -0.2674   -1.0462 H       1  UNL1        0.1386
@<TRIPOS>BOND
     1    25    22    1
     2    11     6    1
     3    12     7    1
     4     6     7   ar
     5     6     5   ar
     6     7     8   ar
     7    16     4    1
     8     3     2    2
     9    19    17    1
    10     4     5    1
    11     4     1    2
    12     5    10   ar
    13     2     1    1
    14     2    21    1
    15    22    21    1
    16    22    23    1
    17    22    24    1
    18     8    13    1
    19     8     9   ar
    20     1    17    1
    21    10     9   ar
    22    10    15    1
    23     9    14    1
    24    17    20    1
    25    17    18    1
