@<TRIPOS>MOLECULE
GS-61-1.out
 26 26 0 0 0
SMALL
MULLIKEN_CHARGES
****
Gaussian 16 # wB97XD def2tzvp, opt=(maxcycles=70, maxstep=1), freq=noraman, scrf=(
@<TRIPOS>ATOM
      1 C          -1.0050    0.5784   -0.1416 C.2     1  UNL1        0.0648
      2 C          -2.4650    0.2275   -0.2218 C.2     1  UNL1        0.3451
      3 O          -3.2223    0.8112   -0.9916 O.2     1  UNL1       -0.5031
      4 C          -0.1057   -0.4065   -0.0418 C.2     1  UNL1       -0.2705
      5 C           1.3599   -0.2878    0.0157 C.ar    1  UNL1        0.2208
      6 C           2.0109    0.7266    0.7195 C.ar    1  UNL1       -0.2709
      7 C           3.3957    0.7890    0.7529 C.ar    1  UNL1       -0.1348
      8 C           4.1554   -0.1608    0.0856 C.ar    1  UNL1       -0.1414
      9 C           3.5210   -1.1858   -0.6033 C.ar    1  UNL1       -0.1441
     10 C           2.1379   -1.2527   -0.6283 C.ar    1  UNL1       -0.2402
     11 H           1.4322    1.4594    1.2658 H       1  UNL1        0.1758
     12 H           3.8826    1.5805    1.3086 H       1  UNL1        0.1444
     13 H           5.2365   -0.1093    0.1110 H       1  UNL1        0.1463
     14 H           4.1056   -1.9378   -1.1180 H       1  UNL1        0.1442
     15 H           1.6479   -2.0600   -1.1601 H       1  UNL1        0.1410
     16 H          -0.4704   -1.4296   -0.0530 H       1  UNL1        0.1653
     17 C          -0.7020    2.0380   -0.2946 C.3     1  UNL1       -0.4166
     18 H          -0.8127    2.5643    0.6572 H       1  UNL1        0.1485
     19 H           0.3100    2.2060   -0.6583 H       1  UNL1        0.1524
     20 H          -1.4106    2.4791   -0.9949 H       1  UNL1        0.1430
     21 N          -2.8922   -0.7549    0.5901 N.am    1  UNL1       -0.3111
     22 C          -4.2655   -1.2068    0.5894 C.3     1  UNL1       -0.2528
     23 H          -2.2602   -1.1225    1.2776 H       1  UNL1        0.2779
     24 H          -4.9449   -0.4060    0.8878 H       1  UNL1        0.1332
     25 H          -4.5573   -1.5513   -0.4032 H       1  UNL1        0.1364
     26 H          -4.3609   -2.0315    1.2914 H       1  UNL1        0.1464
@<TRIPOS>BOND
     1    15    10    1
     2    14     9    1
     3    20    17    1
     4     3     2    2
     5    19    17    1
     6    10     9   ar
     7    10     5   ar
     8     9     8   ar
     9    25    22    1
    10    17     1    1
    11    17    18    1
    12     2     1    1
    13     2    21   am
    14     1     4    2
    15    16     4    1
    16     4     5    1
    17     5     6   ar
    18     8    13    1
    19     8     7   ar
    20    22    21    1
    21    22    24    1
    22    22    26    1
    23    21    23    1
    24     6     7   ar
    25     6    11    1
    26     7    12    1
