@<TRIPOS>MOLECULE
GS-633-0.out
 18 18 0 0 0
SMALL
MULLIKEN_CHARGES
****
Gaussian 16 # wB97XD def2tzvp, opt=(calcfc, maxcycles=70, maxstep=10), freq=norama
@<TRIPOS>ATOM
      1 C           1.1975    0.8872    0.0885 C.2     1  UNL1       -0.0002
      2 C           0.7510    2.2800    0.3275 C.2     1  UNL1        0.1048
      3 O           1.4938    3.2274    0.3439 O.2     1  UNL1       -0.3454
      4 C           0.3194   -0.1241    0.0120 C.2     1  UNL1       -0.0008
      5 BR          0.9032   -1.9110   -0.1352 Br      1  UNL1        0.0016
      6 C          -1.1481    0.0497    0.0020 C.ar    1  UNL1        0.1998
      7 C          -1.7544    0.7616   -1.0301 C.ar    1  UNL1       -0.2642
      8 C          -3.1311    0.9261   -1.0455 C.ar    1  UNL1       -0.1026
      9 C          -3.9069    0.3826   -0.0338 C.ar    1  UNL1       -0.1393
     10 C          -3.3055   -0.3337    0.9934 C.ar    1  UNL1       -0.1338
     11 C          -1.9332   -0.5087    1.0092 C.ar    1  UNL1       -0.1984
     12 H          -1.1471    1.1776   -1.8239 H       1  UNL1        0.1705
     13 H          -3.5950    1.4788   -1.8518 H       1  UNL1        0.1534
     14 H          -4.9813    0.5129   -0.0455 H       1  UNL1        0.1532
     15 H          -3.9087   -0.7578    1.7854 H       1  UNL1        0.1521
     16 H          -1.4662   -1.0700    1.8085 H       1  UNL1        0.1608
     17 CL          2.9017    0.6712   -0.0203 Cl      1  UNL1       -0.0611
     18 H          -0.3265    2.3899    0.5149 H       1  UNL1        0.1497
@<TRIPOS>BOND
     1    13     8    1
     2    12     7    1
     3     8     7   ar
     4     8     9   ar
     5     7     6   ar
     6     5     4    1
     7    14     9    1
     8     9    10   ar
     9    17     1    1
    10     6     4    1
    11     6    11   ar
    12     4     1    2
    13     1     2    1
    14     2     3    2
    15     2    18    1
    16    10    11   ar
    17    10    15    1
    18    11    16    1
