@<TRIPOS>MOLECULE
GS-616-0.out
 28 29 0 0 0
SMALL
MULLIKEN_CHARGES
****
Gaussian 16 # wB97XD def2tzvp, opt=(calcfc, maxcycles=70, maxstep=10), freq=norama
@<TRIPOS>ATOM
      1 C          -0.7769   -1.6888    0.2079 C.2     1  UNL1       -0.2440
      2 C           0.6426   -1.9458    0.5901 C.2     1  UNL1        0.2929
      3 O           0.8648   -2.8123    1.4130 O.2     1  UNL1       -0.3872
      4 C          -1.3533   -0.4950    0.0960 C.2     1  UNL1       -0.0088
      5 BR         -3.2028   -0.4381   -0.3731 Br      1  UNL1       -0.0667
      6 C          -0.7295    0.8175    0.3416 C.ar    1  UNL1        0.2509
      7 C          -0.0217    1.0303    1.5217 C.ar    1  UNL1       -0.2405
      8 C           0.6290    2.2347    1.7389 C.ar    1  UNL1       -0.1385
      9 C           0.5748    3.2358    0.7817 C.ar    1  UNL1       -0.1263
     10 C          -0.1439    3.0348   -0.3901 C.ar    1  UNL1       -0.1459
     11 C          -0.8012    1.8368   -0.6061 C.ar    1  UNL1       -0.2142
     12 H           0.0161    0.2519    2.2733 H       1  UNL1        0.1683
     13 H           1.1770    2.3894    2.6592 H       1  UNL1        0.1493
     14 H           1.0856    4.1752    0.9494 H       1  UNL1        0.1502
     15 H          -0.1907    3.8146   -1.1390 H       1  UNL1        0.1483
     16 H          -1.3556    1.6819   -1.5230 H       1  UNL1        0.1579
     17 H          -1.3706   -2.5885    0.1049 H       1  UNL1        0.1780
     18 C           1.7553   -1.1958   -0.0568 C.ar    1  UNL1        0.1281
     19 C           2.9705   -1.0936    0.6167 C.ar    1  UNL1       -0.2120
     20 C           4.0294   -0.4133    0.0426 C.ar    1  UNL1       -0.1296
     21 C           3.8878    0.1528   -1.2184 C.ar    1  UNL1       -0.1205
     22 C           2.6857    0.0384   -1.9015 C.ar    1  UNL1       -0.1504
     23 C           1.6191   -0.6279   -1.3202 C.ar    1  UNL1       -0.2050
     24 H           3.0689   -1.5396    1.5977 H       1  UNL1        0.1478
     25 H           4.9665   -0.3219    0.5765 H       1  UNL1        0.1485
     26 H           4.7169    0.6834   -1.6689 H       1  UNL1        0.1509
     27 H           2.5769    0.4719   -2.8871 H       1  UNL1        0.1481
     28 H           0.6816   -0.7120   -1.8539 H       1  UNL1        0.1701
@<TRIPOS>BOND
     1    27    22    1
     2    22    23   ar
     3    22    21   ar
     4    28    23    1
     5    26    21    1
     6    16    11    1
     7    23    18   ar
     8    21    20   ar
     9    15    10    1
    10    11    10   ar
    11    11     6   ar
    12    10     9   ar
    13     5     4    1
    14    18     2    1
    15    18    19   ar
    16    20    25    1
    17    20    19   ar
    18     4     1    2
    19     4     6    1
    20    17     1    1
    21     1     2    1
    22     6     7   ar
    23     2     3    2
    24    19    24    1
    25     9    14    1
    26     9     8   ar
    27     7     8   ar
    28     7    12    1
    29     8    13    1
