@<TRIPOS>MOLECULE
GS-641-0.out
 18 18 0 0 0
SMALL
MULLIKEN_CHARGES
****
Gaussian 16 # wB97XD def2tzvp, opt=(calcfc, maxcycles=70, maxstep=10), freq=norama
@<TRIPOS>ATOM
      1 C          -0.3435    1.1020    0.1128 C.2     1  UNL1       -0.0711
      2 C          -0.2932    2.5896    0.2376 C.2     1  UNL1        0.1592
      3 O          -1.2559    3.3111    0.3186 O.2     1  UNL1       -0.3639
      4 C          -1.5547    0.5548    0.0374 C.2     1  UNL1       -0.0787
      5 BR         -1.9152   -1.2661   -0.1911 Br      1  UNL1       -0.0134
      6 H          -2.4456    1.1655    0.0829 H       1  UNL1        0.1881
      7 C           0.9512    0.3861    0.0708 C.ar    1  UNL1        0.1978
      8 C           1.2770   -0.5631    1.0367 C.ar    1  UNL1       -0.2517
      9 C           2.5030   -1.2080    0.9998 C.ar    1  UNL1       -0.1216
     10 C           3.4183   -0.9094    0.0001 C.ar    1  UNL1       -0.1496
     11 C           3.1047    0.0409   -0.9605 C.ar    1  UNL1       -0.1274
     12 C           1.8795    0.6893   -0.9228 C.ar    1  UNL1       -0.2589
     13 H           0.5693   -0.7911    1.8236 H       1  UNL1        0.1634
     14 H           2.7454   -1.9430    1.7567 H       1  UNL1        0.1475
     15 H           4.3755   -1.4142   -0.0279 H       1  UNL1        0.1484
     16 H           3.8141    0.2788   -1.7426 H       1  UNL1        0.1480
     17 H           1.6385    1.4267   -1.6794 H       1  UNL1        0.1607
     18 H           0.7288    3.0085    0.2555 H       1  UNL1        0.1229
@<TRIPOS>BOND
     1    16    11    1
     2    17    12    1
     3    11    12   ar
     4    11    10   ar
     5    12     7   ar
     6     5     4    1
     7    15    10    1
     8    10     9   ar
     9     4     6    1
    10     4     1    2
    11     7     1    1
    12     7     8   ar
    13     1     2    1
    14     2    18    1
    15     2     3    2
    16     9     8   ar
    17     9    14    1
    18     8    13    1
