@<TRIPOS>MOLECULE
GS-635-0.out
 20 20 0 0 0
SMALL
MULLIKEN_CHARGES
****
Gaussian 16 # wB97XD def2tzvp, opt=(calcfc, maxcycles=70, maxstep=10), freq=norama
@<TRIPOS>ATOM
      1 C          -1.1519    0.7466   -0.1168 C.2     1  UNL1       -0.0076
      2 C          -0.6339    2.1524   -0.3534 C.2     1  UNL1        0.2569
      3 O           0.0166    2.4189   -1.3464 O.2     1  UNL1       -0.4255
      4 C          -0.3364   -0.2975   -0.0037 C.2     1  UNL1       -0.0578
      5 BR         -1.0132   -2.0584    0.1568 Br      1  UNL1       -0.0358
      6 C           1.1369   -0.1783    0.0382 C.ar    1  UNL1        0.2457
      7 C           1.7399    0.5765    1.0400 C.ar    1  UNL1       -0.2124
      8 C           3.1197    0.7110    1.0764 C.ar    1  UNL1       -0.1365
      9 C           3.9040    0.0900    0.1170 C.ar    1  UNL1       -0.1394
     10 C           3.3059   -0.6721   -0.8788 C.ar    1  UNL1       -0.1362
     11 C           1.9296   -0.8116   -0.9164 C.ar    1  UNL1       -0.2218
     12 H           1.1276    1.0548    1.7941 H       1  UNL1        0.1627
     13 H           3.5804    1.2986    1.8599 H       1  UNL1        0.1492
     14 H           4.9810    0.1945    0.1458 H       1  UNL1        0.1499
     15 H           3.9149   -1.1587   -1.6296 H       1  UNL1        0.1490
     16 H           1.4656   -1.4061   -1.6933 H       1  UNL1        0.1571
     17 CL         -2.8750    0.6292   -0.0712 Cl      1  UNL1       -0.0531
     18 N          -0.9644    3.0449    0.5898 N.am    1  UNL1       -0.4339
     19 H          -0.6928    4.0062    0.4732 H       1  UNL1        0.2899
     20 H          -1.5024    2.7912    1.3990 H       1  UNL1        0.2995
@<TRIPOS>BOND
     1    16    11    1
     2    15    10    1
     3     3     2    2
     4    11    10   ar
     5    11     6   ar
     6    10     9   ar
     7     2     1    1
     8     2    18   am
     9     1    17    1
    10     1     4    2
    11     4     6    1
    12     4     5    1
    13     6     7   ar
    14     9    14    1
    15     9     8   ar
    16    19    18    1
    17    18    20    1
    18     7     8   ar
    19     7    12    1
    20     8    13    1
