@<TRIPOS>MOLECULE
GS-691-0.out
 13 12 0 0 0
SMALL
MULLIKEN_CHARGES
****
Gaussian 16 # wB97XD def2tzvp, opt=(calcfc, maxcycles=70, maxstep=10), freq=norama
@<TRIPOS>ATOM
      1 C          -0.8416   -0.4805    0.0002 C.2     1  UNL1       -0.2664
      2 C          -2.2907   -0.1295    0.0001 C.2     1  UNL1        0.3725
      3 O          -2.7380    1.0100    0.0006 O.2     1  UNL1       -0.4884
      4 C           0.1623    0.3911   -0.0001 C.2     1  UNL1        0.0669
      5 BR          1.9337   -0.3305    0.0001 Br      1  UNL1       -0.0874
      6 C           0.1328    1.8774   -0.0005 C.3     1  UNL1       -0.3394
      7 H          -0.8954    2.2268   -0.0009 H       1  UNL1        0.1571
      8 H           0.6535    2.2597    0.8794 H       1  UNL1        0.1491
      9 H           0.6543    2.2592   -0.8802 H       1  UNL1        0.1491
     10 H          -0.6107   -1.5378    0.0003 H       1  UNL1        0.1662
     11 N          -3.1011   -1.2082   -0.0005 N.am    1  UNL1       -0.4487
     12 H          -4.0963   -1.0677   -0.0004 H       1  UNL1        0.2793
     13 H          -2.7502   -2.1482   -0.0008 H       1  UNL1        0.2899
@<TRIPOS>BOND
     1     9     6    1
     2     7     6    1
     3    13    11    1
     4     6     4    1
     5     6     8    1
     6    11    12    1
     7    11     2   am
     8     4     5    1
     9     4     1    2
    10     2     1    1
    11     2     3    2
    12     1    10    1
