@<TRIPOS>MOLECULE
GS-673-0.out
 8 7 0 0 0
SMALL
MULLIKEN_CHARGES
****
Gaussian 16 # wB97XD def2tzvp, opt=(calcfc, maxcycles=70, maxstep=10), freq=norama
@<TRIPOS>ATOM
      1 C          -1.0574    0.0526   -0.0000 C.2     1  UNL1       -0.0020
      2 C          -2.4383   -0.5073   -0.0000 C.2     1  UNL1        0.1559
      3 O          -2.6756   -1.6863   -0.0000 O.2     1  UNL1       -0.3436
      4 C          -0.0040   -0.7570    0.0000 C.2     1  UNL1       -0.0952
      5 BR          1.7741   -0.2225   -0.0000 Br      1  UNL1        0.0139
      6 H          -0.1601   -1.8266   -0.0000 H       1  UNL1        0.2038
      7 CL         -0.9583    1.7721    0.0000 Cl      1  UNL1       -0.0603
      8 H          -3.2401    0.2497    0.0000 H       1  UNL1        0.1274
@<TRIPOS>BOND
     1     1     2    1
     2     1     7    1
     3     1     4    2
     4     2     3    2
     5     2     8    1
     6     5     4    1
     7     6     4    1
