@<TRIPOS>MOLECULE
GS-622-1.out
 29 29 0 0 0
SMALL
MULLIKEN_CHARGES
****
Gaussian 16 # wB97XD def2tzvp, opt=(calcfc, maxcycles=70, maxstep=1), freq=noraman
@<TRIPOS>ATOM
      1 C           0.3011   -1.4567   -0.2264 C.2     1  UNL1       -0.0434
      2 C          -1.1864   -1.6106   -0.4535 C.2     1  UNL1        0.2364
      3 O          -1.5678   -1.9771   -1.5613 O.2     1  UNL1       -0.4850
      4 C           0.8137   -0.2336   -0.1388 C.2     1  UNL1       -0.0443
      5 BR          2.7018    0.0262    0.0616 Br      1  UNL1       -0.0944
      6 C           0.0387    1.0271   -0.1781 C.ar    1  UNL1        0.2284
      7 C           0.0719    1.9168    0.8946 C.ar    1  UNL1       -0.2684
      8 C          -0.6919    3.0711    0.8709 C.ar    1  UNL1       -0.1219
      9 C          -1.4904    3.3569   -0.2290 C.ar    1  UNL1       -0.1399
     10 C          -1.5188    2.4830   -1.3048 C.ar    1  UNL1       -0.1435
     11 C          -0.7565    1.3244   -1.2819 C.ar    1  UNL1       -0.2116
     12 H           0.6916    1.6965    1.7549 H       1  UNL1        0.1567
     13 H          -0.6659    3.7490    1.7144 H       1  UNL1        0.1464
     14 H          -2.0854    4.2610   -0.2473 H       1  UNL1        0.1475
     15 H          -2.1332    2.7029   -2.1685 H       1  UNL1        0.1463
     16 H          -0.7795    0.6424   -2.1218 H       1  UNL1        0.1528
     17 C           1.0384   -2.7575   -0.2110 C.3     1  UNL1       -0.3404
     18 H           0.7234   -3.3538    0.6494 H       1  UNL1        0.1487
     19 H           0.7921   -3.3276   -1.1082 H       1  UNL1        0.1492
     20 H           2.1150   -2.6191   -0.1626 H       1  UNL1        0.1381
     21 N          -2.0184   -1.3693    0.5742 N.am    1  UNL1       -0.0793
     22 C          -3.4522   -1.4320    0.3718 C.3     1  UNL1       -0.2808
     23 C          -1.6006   -1.0353    1.9211 C.3     1  UNL1       -0.3102
     24 H          -3.6633   -1.5646   -0.6842 H       1  UNL1        0.1513
     25 H          -3.8812   -2.2644    0.9341 H       1  UNL1        0.1454
     26 H          -3.9081   -0.5036    0.7217 H       1  UNL1        0.1400
     27 H          -0.5302   -1.1689    2.0408 H       1  UNL1        0.1681
     28 H          -1.8551    0.0012    2.1546 H       1  UNL1        0.1553
     29 H          -2.1148   -1.6889    2.6280 H       1  UNL1        0.1526
@<TRIPOS>BOND
     1    15    10    1
     2    16    11    1
     3     3     2    2
     4    10    11   ar
     5    10     9   ar
     6    11     6   ar
     7    19    17    1
     8    24    22    1
     9     2     1    1
    10     2    21   am
    11    14     9    1
    12     9     8   ar
    13     1    17    1
    14     1     4    2
    15    17    20    1
    16    17    18    1
    17     6     4    1
    18     6     7   ar
    19     4     5    1
    20    22    21    1
    21    22    26    1
    22    22    25    1
    23    21    23    1
    24     8     7   ar
    25     8    13    1
    26     7    12    1
    27    23    27    1
    28    23    28    1
    29    23    29    1
