@<TRIPOS>MOLECULE
GS-689-0.out
 11 10 0 0 0
SMALL
MULLIKEN_CHARGES
****
Gaussian 16 # wB97XD def2tzvp, opt=(calcfc, maxcycles=70, maxstep=10), freq=norama
@<TRIPOS>ATOM
      1 C           1.1780   -0.4127    0.0000 C.2     1  UNL1       -0.1970
      2 C           2.5733    0.0277    0.0000 C.2     1  UNL1        0.1694
      3 O           3.5009   -0.7518   -0.0000 O.2     1  UNL1       -0.3832
      4 C           0.1359    0.4207    0.0000 C.2     1  UNL1        0.0693
      5 BR         -1.6046   -0.3473   -0.0000 Br      1  UNL1       -0.0589
      6 C           0.1218    1.9090   -0.0000 C.3     1  UNL1       -0.3204
      7 H           1.1254    2.3267    0.0000 H       1  UNL1        0.1296
      8 H          -0.4098    2.2740   -0.8799 H       1  UNL1        0.1604
      9 H          -0.4098    2.2740    0.8799 H       1  UNL1        0.1604
     10 H           1.0286   -1.4850    0.0000 H       1  UNL1        0.1669
     11 H           2.7659    1.1123    0.0000 H       1  UNL1        0.1035
@<TRIPOS>BOND
     1     8     6    1
     2     1     2    1
     3     1     4    2
     4     1    10    1
     5     2     3    2
     6     2    11    1
     7     4     5    1
     8     4     6    1
     9     6     7    1
    10     6     9    1
