@<TRIPOS>MOLECULE
GS-655-0.out
 20 20 0 0 0
SMALL
MULLIKEN_CHARGES
****
Gaussian 16 # wB97XD def2tzvp, opt=(calcfc, maxcycles=70, maxstep=10), freq=norama
@<TRIPOS>ATOM
      1 C          -1.2973   -0.2556    0.0000 C.2     1  UNL1       -0.3135
      2 C           0.0444    0.3956   -0.0000 C.2     1  UNL1        0.4589
      3 O           0.1858    1.6071   -0.0000 O.2     1  UNL1       -0.4805
      4 C          -2.3827    0.4990   -0.0000 C.2     1  UNL1       -0.0557
      5 BR         -4.1219   -0.2029    0.0000 Br      1  UNL1       -0.0382
      6 H          -2.3427    1.5792   -0.0000 H       1  UNL1        0.1908
      7 H          -1.3630   -1.3365    0.0000 H       1  UNL1        0.1680
      8 N           1.0686   -0.4990    0.0000 N.am    1  UNL1       -0.2733
      9 C           2.4544   -0.2665    0.0000 C.ar    1  UNL1        0.3045
     10 C           3.2826   -1.3903   -0.0000 C.ar    1  UNL1       -0.2980
     11 C           4.6577   -1.2467   -0.0000 C.ar    1  UNL1       -0.0967
     12 C           5.2307    0.0181   -0.0000 C.ar    1  UNL1       -0.1867
     13 C           4.4073    1.1323    0.0000 C.ar    1  UNL1       -0.1045
     14 C           3.0249    1.0047    0.0000 C.ar    1  UNL1       -0.2910
     15 H           0.8048   -1.4704    0.0000 H       1  UNL1        0.2660
     16 H           2.8441   -2.3815   -0.0000 H       1  UNL1        0.1464
     17 H           5.2837   -2.1298   -0.0000 H       1  UNL1        0.1473
     18 H           6.3069    0.1313   -0.0000 H       1  UNL1        0.1443
     19 H           4.8403    2.1247    0.0000 H       1  UNL1        0.1455
     20 H           2.3931    1.8774    0.0000 H       1  UNL1        0.1664
@<TRIPOS>BOND
     1     6     4    1
     2    17    11    1
     3     3     2    2
     4    16    10    1
     5    11    10   ar
     6    11    12   ar
     7    18    12    1
     8     4     5    1
     9     4     1    2
    10    10     9   ar
    11    12    13   ar
    12     2     1    1
    13     2     8   am
    14     9     8    1
    15     9    14   ar
    16     1     7    1
    17    13    14   ar
    18    13    19    1
    19     8    15    1
    20    14    20    1
