@<TRIPOS>MOLECULE
GS-63-1.out
 33 34 0 0 0
SMALL
MULLIKEN_CHARGES
****
Gaussian 16 # wB97XD def2tzvp, opt=(maxcycles=70, maxstep=1), freq=noraman, scrf=(
@<TRIPOS>ATOM
      1 C          -0.7188    1.0796    0.0737 C.2     1  UNL1        0.0479
      2 C           0.7688    1.1475   -0.1354 C.2     1  UNL1        0.3921
      3 O           1.2975    2.1408   -0.6088 O.2     1  UNL1       -0.4789
      4 C          -1.3640   -0.0566   -0.2134 C.2     1  UNL1       -0.2679
      5 C          -2.8077   -0.3230   -0.1209 C.ar    1  UNL1        0.2196
      6 C          -3.4016   -1.1417   -1.0843 C.ar    1  UNL1       -0.2410
      7 C          -4.7564   -1.4248   -1.0407 C.ar    1  UNL1       -0.1436
      8 C          -5.5417   -0.9104   -0.0177 C.ar    1  UNL1       -0.1401
      9 C          -4.9597   -0.1185    0.9614 C.ar    1  UNL1       -0.1345
     10 C          -3.6051    0.1731    0.9116 C.ar    1  UNL1       -0.2698
     11 H          -2.7910   -1.5535   -1.8794 H       1  UNL1        0.1417
     12 H          -5.1997   -2.0529   -1.8029 H       1  UNL1        0.1448
     13 H          -6.5999   -1.1352    0.0219 H       1  UNL1        0.1469
     14 H          -5.5613    0.2702    1.7733 H       1  UNL1        0.1450
     15 H          -3.1608    0.7701    1.6966 H       1  UNL1        0.1761
     16 H          -0.7853   -0.8836   -0.6150 H       1  UNL1        0.1720
     17 C          -1.3509    2.3749    0.4836 C.3     1  UNL1       -0.4205
     18 H          -1.2871    2.5184    1.5653 H       1  UNL1        0.1507
     19 H          -0.8173    3.1998    0.0131 H       1  UNL1        0.1462
     20 H          -2.3998    2.4207    0.1970 H       1  UNL1        0.1547
     21 N           1.4538    0.0355    0.2492 N.am    1  UNL1       -0.2784
     22 C           2.8263   -0.2414    0.1382 C.ar    1  UNL1        0.3093
     23 C           3.7036    0.5101   -0.6409 C.ar    1  UNL1       -0.2929
     24 C           5.0425    0.1491   -0.7045 C.ar    1  UNL1       -0.1052
     25 C           5.5233   -0.9485   -0.0084 C.ar    1  UNL1       -0.1879
     26 C           4.6448   -1.6978    0.7627 C.ar    1  UNL1       -0.0965
     27 C           3.3087   -1.3488    0.8375 C.ar    1  UNL1       -0.3044
     28 H           0.9172   -0.6533    0.7496 H       1  UNL1        0.2729
     29 H           3.3410    1.3662   -1.1856 H       1  UNL1        0.1613
     30 H           5.7152    0.7406   -1.3130 H       1  UNL1        0.1448
     31 H           6.5694   -1.2193   -0.0658 H       1  UNL1        0.1436
     32 H           5.0000   -2.5602    1.3125 H       1  UNL1        0.1464
     33 H           2.6297   -1.9385    1.4424 H       1  UNL1        0.1455
@<TRIPOS>BOND
     1    11     6    1
     2    12     7    1
     3    30    24    1
     4    29    23    1
     5     6     7   ar
     6     6     5   ar
     7     7     8   ar
     8    24    23   ar
     9    24    25   ar
    10    23    22   ar
    11    16     4    1
    12     3     2    2
    13     4     5    1
    14     4     1    2
    15     2     1    1
    16     2    21   am
    17     5    10   ar
    18    31    25    1
    19     8    13    1
    20     8     9   ar
    21    25    26   ar
    22    19    17    1
    23     1    17    1
    24    22    21    1
    25    22    27   ar
    26    20    17    1
    27    21    28    1
    28    17    18    1
    29    26    27   ar
    30    26    32    1
    31    27    33    1
    32    10     9   ar
    33    10    15    1
    34     9    14    1
