@<TRIPOS>MOLECULE
GS-637-0.out
 23 23 0 0 0
SMALL
MULLIKEN_CHARGES
****
Gaussian 16 # wB97XD def2tzvp, opt=(calcfc, maxcycles=70, maxstep=10), freq=norama
@<TRIPOS>ATOM
      1 C           1.2242   -0.0894   -0.1640 C.2     1  UNL1       -0.0167
      2 C           1.1572   -1.5736   -0.4633 C.2     1  UNL1        0.2982
      3 O           0.7244   -1.9771   -1.5300 O.2     1  UNL1       -0.4489
      4 C           0.1286    0.6440    0.0013 C.2     1  UNL1       -0.0530
      5 BR          0.2229    2.5209    0.2335 Br      1  UNL1       -0.0391
      6 C          -1.2318    0.0634    0.0307 C.ar    1  UNL1        0.2217
      7 C          -1.5644   -0.8738    1.0044 C.ar    1  UNL1       -0.2083
      8 C          -2.8291   -1.4431    1.0210 C.ar    1  UNL1       -0.1428
      9 C          -3.7688   -1.0768    0.0703 C.ar    1  UNL1       -0.1330
     10 C          -3.4433   -0.1344   -0.8973 C.ar    1  UNL1       -0.1426
     11 C          -2.1833    0.4375   -0.9157 C.ar    1  UNL1       -0.2153
     12 H          -0.8336   -1.1538    1.7521 H       1  UNL1        0.1608
     13 H          -3.0792   -2.1701    1.7827 H       1  UNL1        0.1488
     14 H          -4.7559   -1.5207    0.0837 H       1  UNL1        0.1498
     15 H          -4.1742    0.1543   -1.6415 H       1  UNL1        0.1488
     16 H          -1.9313    1.1710   -1.6713 H       1  UNL1        0.1571
     17 CL          2.8287    0.5495   -0.1413 Cl      1  UNL1       -0.0540
     18 N           1.6198   -2.3704    0.5050 N.am    1  UNL1       -0.2985
     19 C           1.6487   -3.8105    0.3596 C.3     1  UNL1       -0.2568
     20 H           1.9459   -1.9594    1.3622 H       1  UNL1        0.2864
     21 H           2.0851   -4.2401    1.2571 H       1  UNL1        0.1518
     22 H           0.6406   -4.2058    0.2278 H       1  UNL1        0.1433
     23 H           2.2503   -4.0980   -0.5032 H       1  UNL1        0.1423
@<TRIPOS>BOND
     1    16    11    1
     2    15    10    1
     3     3     2    2
     4    11    10   ar
     5    11     6   ar
     6    10     9   ar
     7    23    19    1
     8     2     1    1
     9     2    18   am
    10     1    17    1
    11     1     4    2
    12     4     6    1
    13     4     5    1
    14     6     7   ar
    15     9    14    1
    16     9     8   ar
    17    22    19    1
    18    19    18    1
    19    19    21    1
    20    18    20    1
    21     7     8   ar
    22     7    12    1
    23     8    13    1
