@<TRIPOS>MOLECULE
GS-653-0.out
 13 12 0 0 0
SMALL
MULLIKEN_CHARGES
****
Gaussian 16 # wB97XD def2tzvp, opt=(calcfc, maxcycles=70, maxstep=10), freq=norama
@<TRIPOS>ATOM
      1 C           0.3892   -0.3483   -0.0001 C.2     1  UNL1       -0.2807
      2 C           1.7729    0.2100   -0.0000 C.2     1  UNL1        0.4004
      3 O           2.0037    1.4140   -0.0000 O.2     1  UNL1       -0.5019
      4 C          -0.6444    0.4745    0.0000 C.2     1  UNL1       -0.0683
      5 BR         -2.4288   -0.1113    0.0000 Br      1  UNL1       -0.0469
      6 H          -0.5345    1.5496    0.0001 H       1  UNL1        0.1880
      7 H           0.2570   -1.4233   -0.0002 H       1  UNL1        0.1684
      8 N           2.7477   -0.7137    0.0000 N.am    1  UNL1       -0.3116
      9 C           4.1470   -0.3495    0.0000 C.3     1  UNL1       -0.2492
     10 H           2.5016   -1.6873    0.0001 H       1  UNL1        0.2760
     11 H           4.7431   -1.2582   -0.0004 H       1  UNL1        0.1492
     12 H           4.3952    0.2388   -0.8845 H       1  UNL1        0.1383
     13 H           4.3955    0.2382    0.8849 H       1  UNL1        0.1383
@<TRIPOS>BOND
     1    12     9    1
     2    11     9    1
     3     7     1    1
     4     1     2    1
     5     1     4    2
     6     3     2    2
     7     2     8   am
     8     5     4    1
     9     8     9    1
    10     8    10    1
    11     4     6    1
    12     9    13    1
