@<TRIPOS>MOLECULE
GS-680-0.out
 18 18 0 0 0
SMALL
MULLIKEN_CHARGES
****
Gaussian 16 # wB97XD def2tzvp, opt=(calcfc, maxcycles=70, maxstep=10), freq=norama
@<TRIPOS>ATOM
      1 C          -0.5981    0.3296    0.2657 C.2     1  UNL1       -0.0534
      2 C           0.6748    1.1196    0.0846 C.2     1  UNL1        0.2941
      3 O           0.6144    2.3274    0.0468 O.2     1  UNL1       -0.3602
      4 C          -1.6761    0.6794   -0.4222 C.2     1  UNL1       -0.1095
      5 BR         -3.3372   -0.1625   -0.3336 Br      1  UNL1       -0.0092
      6 H          -1.6329    1.5128   -1.1080 H       1  UNL1        0.2038
      7 CL         -0.5707   -0.9693    1.3996 Cl      1  UNL1       -0.0512
      8 C           1.9603    0.3909   -0.0690 C.ar    1  UNL1        0.1156
      9 C           3.1378    1.0297    0.3139 C.ar    1  UNL1       -0.2040
     10 C           4.3571    0.4004    0.1368 C.ar    1  UNL1       -0.1270
     11 C           4.4083   -0.8602   -0.4442 C.ar    1  UNL1       -0.1250
     12 C           3.2395   -1.4938   -0.8421 C.ar    1  UNL1       -0.1426
     13 C           2.0157   -0.8756   -0.6459 C.ar    1  UNL1       -0.2180
     14 H           3.0857    2.0161    0.7558 H       1  UNL1        0.1523
     15 H           5.2692    0.8926    0.4480 H       1  UNL1        0.1517
     16 H           5.3630   -1.3498   -0.5882 H       1  UNL1        0.1535
     17 H           3.2809   -2.4715   -1.3037 H       1  UNL1        0.1523
     18 H           1.1077   -1.3735   -0.9615 H       1  UNL1        0.1769
@<TRIPOS>BOND
     1    17    12    1
     2     6     4    1
     3    18    13    1
     4    12    13   ar
     5    12    11   ar
     6    13     8   ar
     7    16    11    1
     8    11    10   ar
     9     4     5    1
    10     4     1    2
    11     8     2    1
    12     8     9   ar
    13     3     2    2
    14     2     1    1
    15    10     9   ar
    16    10    15    1
    17     1     7    1
    18     9    14    1
