@<TRIPOS>MOLECULE
GS-625-0.out
 18 18 0 0 0
SMALL
MULLIKEN_CHARGES
****
Gaussian 16 # wB97XD def2tzvp, opt=(calcfc, maxcycles=70, maxstep=10), freq=norama
@<TRIPOS>ATOM
      1 C           0.8485    0.7328   -0.0983 C.2     1  UNL1       -0.0700
      2 C           0.5086    2.1551   -0.3364 C.2     1  UNL1        0.1167
      3 O           1.3137    3.0503   -0.3487 O.2     1  UNL1       -0.3465
      4 C          -0.1093   -0.2028   -0.0183 C.2     1  UNL1        0.0202
      5 BR          0.3036   -2.0374    0.1288 Br      1  UNL1        0.0048
      6 C          -1.5580    0.0954   -0.0035 C.ar    1  UNL1        0.1957
      7 C          -2.3887   -0.3822   -1.0154 C.ar    1  UNL1       -0.1974
      8 C          -3.7411   -0.0914   -0.9941 C.ar    1  UNL1       -0.1344
      9 C          -4.2780    0.6602    0.0437 C.ar    1  UNL1       -0.1392
     10 C          -3.4573    1.1238    1.0597 C.ar    1  UNL1       -0.1029
     11 C          -2.0994    0.8443    1.0383 C.ar    1  UNL1       -0.2623
     12 H          -1.9721   -0.9714   -1.8224 H       1  UNL1        0.1609
     13 H          -4.3792   -0.4528   -1.7898 H       1  UNL1        0.1521
     14 H          -5.3375    0.8806    0.0597 H       1  UNL1        0.1532
     15 H          -3.8716    1.7040    1.8737 H       1  UNL1        0.1535
     16 H          -1.4572    1.1991    1.8344 H       1  UNL1        0.1698
     17 BR          2.6883    0.3598    0.0172 Br      1  UNL1       -0.0256
     18 H          -0.5577    2.3424   -0.5284 H       1  UNL1        0.1514
@<TRIPOS>BOND
     1    12     7    1
     2    13     8    1
     3     7     8   ar
     4     7     6   ar
     5     8     9   ar
     6    18     2    1
     7     3     2    2
     8     2     1    1
     9     1     4    2
    10     1    17    1
    11     4     6    1
    12     4     5    1
    13     6    11   ar
    14     9    14    1
    15     9    10   ar
    16    11    10   ar
    17    11    16    1
    18    10    15    1
