@<TRIPOS>MOLECULE
GS-716-0.out
 15 14 0 0 0
SMALL
MULLIKEN_CHARGES
****
Gaussian 16 # wB97XD def2tzvp, opt=(calcfc, maxcycles=70, maxstep=10), freq=norama
@<TRIPOS>ATOM
      1 C           0.4059   -0.1414    0.1080 C.2     1  UNL1       -0.0494
      2 C           1.8085    0.3845    0.1823 C.2     1  UNL1        0.4312
      3 O           2.1117    1.4167    0.7249 O.2     1  UNL1       -0.4069
      4 C          -0.6509    0.6638   -0.0243 C.2     1  UNL1        0.0370
      5 BR         -2.3963   -0.0648   -0.0775 Br      1  UNL1       -0.0383
      6 C          -0.6337    2.1500   -0.1599 C.3     1  UNL1       -0.3525
      7 H           0.3762    2.5302   -0.2728 H       1  UNL1        0.1525
      8 H          -1.2340    2.4435   -1.0212 H       1  UNL1        0.1536
      9 H          -1.0802    2.6051    0.7262 H       1  UNL1        0.1582
     10 CL          0.2682   -1.8632    0.2100 Cl      1  UNL1       -0.0644
     11 O           2.6702   -0.4217   -0.4155 O.3     1  UNL1       -0.2660
     12 C           4.0446   -0.0216   -0.3787 C.3     1  UNL1       -0.1985
     13 H           4.5891   -0.8042   -0.8972 H       1  UNL1        0.1524
     14 H           4.1733    0.9332   -0.8861 H       1  UNL1        0.1453
     15 H           4.3850    0.0615    0.6523 H       1  UNL1        0.1456
@<TRIPOS>BOND
     1     8     6    1
     2    13    12    1
     3    14    12    1
     4    11    12    1
     5    11     2    1
     6    12    15    1
     7     7     6    1
     8     6     4    1
     9     6     9    1
    10     5     4    1
    11     4     1    2
    12     1     2    1
    13     1    10    1
    14     2     3    2
