@<TRIPOS>MOLECULE
GS-744-0.out
 21 21 0 0 0
SMALL
MULLIKEN_CHARGES
****
Gaussian 16 # wB97XD def2tzvp, opt=(calcfc, maxcycles=70, maxstep=10), freq=norama
@<TRIPOS>ATOM
      1 C           0.3788    1.0231    0.5566 C.2     1  UNL1       -0.0337
      2 C          -0.9417    0.6216    1.1793 C.2     1  UNL1        0.3861
      3 O          -1.0252    0.5752    2.3857 O.2     1  UNL1       -0.3700
      4 C           1.2310    0.0977    0.1446 C.2     1  UNL1       -0.0902
      5 BR          2.9333    0.4790   -0.5779 Br      1  UNL1       -0.0295
      6 BR          0.8378   -1.7503    0.2386 Br      1  UNL1       -0.0220
      7 C           0.5974    2.5039    0.5273 C.3     1  UNL1       -0.3252
      8 H           0.5794    2.8937    1.5471 H       1  UNL1        0.1589
      9 H           1.5434    2.7694    0.0633 H       1  UNL1        0.1436
     10 H          -0.2130    2.9878   -0.0227 H       1  UNL1        0.1558
     11 C          -2.0996    0.3781    0.2829 C.ar    1  UNL1        0.0334
     12 C          -3.3271    0.0319    0.8471 C.ar    1  UNL1       -0.2184
     13 C          -4.4230   -0.1964    0.0363 C.ar    1  UNL1       -0.1176
     14 C          -4.3021   -0.0767   -1.3435 C.ar    1  UNL1       -0.1206
     15 C          -3.0847    0.2701   -1.9109 C.ar    1  UNL1       -0.1498
     16 C          -1.9842    0.4959   -1.1004 C.ar    1  UNL1       -0.1885
     17 H          -3.4065   -0.0562    1.9225 H       1  UNL1        0.1503
     18 H          -5.3739   -0.4678    0.4757 H       1  UNL1        0.1518
     19 H          -5.1613   -0.2552   -1.9775 H       1  UNL1        0.1539
     20 H          -2.9919    0.3632   -2.9849 H       1  UNL1        0.1518
     21 H          -1.0343    0.7610   -1.5469 H       1  UNL1        0.1798
@<TRIPOS>BOND
     1    20    15    1
     2    19    14    1
     3    15    14   ar
     4    15    16   ar
     5    21    16    1
     6    14    13   ar
     7    16    11   ar
     8     5     4    1
     9    10     7    1
    10    13    18    1
    11    13    12   ar
    12     9     7    1
    13     4     6    1
    14     4     1    2
    15    11    12   ar
    16    11     2    1
    17     7     1    1
    18     7     8    1
    19     1     2    1
    20    12    17    1
    21     2     3    2
