@<TRIPOS>MOLECULE
GS-796-0.out
 12 11 0 0 0
SMALL
MULLIKEN_CHARGES
****
Gaussian 16 # wB97XD def2tzvp, opt=(calcfc, maxcycles=70, maxstep=10), freq=norama
@<TRIPOS>ATOM
      1 C           0.4495   -0.3437    0.1478 C.2     1  UNL1       -0.0318
      2 C           1.8475    0.2006    0.2671 C.2     1  UNL1        0.4240
      3 O           2.1635    1.0596    1.0448 O.2     1  UNL1       -0.3778
      4 C          -0.6258    0.4319    0.0130 C.2     1  UNL1       -0.0028
      5 BR         -2.3689   -0.2453   -0.1003 Br      1  UNL1        0.0277
      6 CL         -0.5168    2.1384   -0.1060 Cl      1  UNL1       -0.0043
      7 CL          0.3336   -2.0587    0.2186 Cl      1  UNL1       -0.0322
      8 O           2.6647   -0.4029   -0.5755 O.3     1  UNL1       -0.2573
      9 C           4.0409   -0.0019   -0.5255 C.3     1  UNL1       -0.1963
     10 H           4.5467   -0.6074   -1.2704 H       1  UNL1        0.1546
     11 H           4.1318    1.0560   -0.7660 H       1  UNL1        0.1483
     12 H           4.4501   -0.1925    0.4652 H       1  UNL1        0.1480
@<TRIPOS>BOND
     1    10     9    1
     2    11     9    1
     3     8     9    1
     4     8     2    1
     5     9    12    1
     6     6     4    1
     7     5     4    1
     8     4     1    2
     9     1     7    1
    10     1     2    1
    11     2     3    2
