@<TRIPOS>MOLECULE
GS-773-0.out
 13 12 0 0 0
SMALL
MULLIKEN_CHARGES
****
Gaussian 16 # wB97XD def2tzvp, opt=(calcfc, maxcycles=70, maxstep=10), freq=norama
@<TRIPOS>ATOM
      1 C          -0.3897   -0.8901    0.0815 C.2     1  UNL1       -0.2399
      2 C          -1.8632   -0.7429   -0.1444 C.2     1  UNL1        0.3991
      3 O          -2.4154   -1.4431   -0.9824 O.2     1  UNL1       -0.4819
      4 C           0.5245    0.0577   -0.0454 C.2     1  UNL1        0.0264
      5 BR          2.3638   -0.3173    0.1550 Br      1  UNL1       -0.0118
      6 CL          0.1814    1.7010   -0.4317 Cl      1  UNL1       -0.0312
      7 H          -0.0613   -1.9026    0.2770 H       1  UNL1        0.1956
      8 N          -2.5095    0.1377    0.6266 N.am    1  UNL1       -0.3216
      9 C          -3.9337    0.3644    0.5033 C.3     1  UNL1       -0.2500
     10 H          -1.9908    0.6553    1.3137 H       1  UNL1        0.2836
     11 H          -4.1846    0.7083   -0.5007 H       1  UNL1        0.1408
     12 H          -4.4908   -0.5514    0.7050 H       1  UNL1        0.1401
     13 H          -4.2267    1.1243    1.2226 H       1  UNL1        0.1506
@<TRIPOS>BOND
     1     3     2    2
     2    11     9    1
     3     6     4    1
     4     2     1    1
     5     2     8   am
     6     4     1    2
     7     4     5    1
     8     1     7    1
     9     9     8    1
    10     9    12    1
    11     9    13    1
    12     8    10    1
