@<TRIPOS>MOLECULE
GS-739-0.out
 13 12 0 0 0
SMALL
MULLIKEN_CHARGES
****
Gaussian 16 # wB97XD def2tzvp, opt=(calcfc, maxcycles=70, maxstep=10), freq=norama
@<TRIPOS>ATOM
      1 C           0.7272    1.0359   -0.0070 C.2     1  UNL1       -0.0160
      2 C           2.1807    0.6242   -0.0919 C.2     1  UNL1        0.3096
      3 O           2.7653    0.6422   -1.1614 O.2     1  UNL1       -0.4461
      4 C          -0.2297    0.1193    0.0005 C.2     1  UNL1       -0.0817
      5 BR         -2.0737    0.5309    0.0286 Br      1  UNL1       -0.0322
      6 BR          0.1272   -1.7377   -0.0471 Br      1  UNL1       -0.0207
      7 C           0.5266    2.5199   -0.0041 C.3     1  UNL1       -0.3134
      8 H           0.9832    2.9465   -0.8993 H       1  UNL1        0.1538
      9 H          -0.5243    2.7939    0.0209 H       1  UNL1        0.1418
     10 H           1.0270    2.9594    0.8614 H       1  UNL1        0.1512
     11 N           2.7604    0.3219    1.0775 N.am    1  UNL1       -0.4325
     12 H           3.7317    0.0600    1.0971 H       1  UNL1        0.2859
     13 H           2.2352    0.2941    1.9329 H       1  UNL1        0.3003
@<TRIPOS>BOND
     1     3     2    2
     2     8     7    1
     3     2     1    1
     4     2    11   am
     5     6     4    1
     6     1     7    1
     7     1     4    2
     8     7     9    1
     9     7    10    1
    10     4     5    1
    11    11    12    1
    12    11    13    1
