@<TRIPOS>MOLECULE
GS-7-0.out
 50 53 0 0 0
SMALL
MULLIKEN_CHARGES
****
Gaussian 16 # wb97xd def2tzvp opt=(calcfc, maxcycles=100, maxstep=10) freq=noraman
@<TRIPOS>ATOM
      1 C           0.6098   -0.6670   -0.2198 C.2     1  UNL1        0.2231
      2 C          -0.7897   -1.1887   -0.4234 C.2     1  UNL1        0.1775
      3 O          -1.0591   -1.9332   -1.3500 O.2     1  UNL1       -0.4467
      4 C           0.8657    0.6498   -0.1351 C.2     1  UNL1        0.2448
      5 C           2.2237    1.1796    0.1596 C.ar    1  UNL1        0.0163
      6 C           2.7831    2.1587   -0.6584 C.ar    1  UNL1       -0.2157
      7 C           4.0483    2.6587   -0.3948 C.ar    1  UNL1       -0.1585
      8 C           4.7614    2.2031    0.7055 C.ar    1  UNL1       -0.1208
      9 C           4.2015    1.2457    1.5397 C.ar    1  UNL1       -0.1547
     10 C           2.9423    0.7355    1.2669 C.ar    1  UNL1       -0.2216
     11 H           2.2258    2.5232   -1.5129 H       1  UNL1        0.1539
     12 H           4.4768    3.4085   -1.0476 H       1  UNL1        0.1426
     13 H           5.7472    2.5981    0.9158 H       1  UNL1        0.1457
     14 H           4.7464    0.8953    2.4072 H       1  UNL1        0.1420
     15 H           2.5092   -0.0133    1.9178 H       1  UNL1        0.1569
     16 C          -0.1936    1.6783   -0.3231 C.ar    1  UNL1       -0.0375
     17 C          -1.0175    1.6710   -1.4463 C.ar    1  UNL1       -0.1909
     18 C          -2.0214    2.6164   -1.5898 C.ar    1  UNL1       -0.1552
     19 C          -2.2136    3.5824   -0.6132 C.ar    1  UNL1       -0.1126
     20 C          -1.3875    3.6073    0.5022 C.ar    1  UNL1       -0.1643
     21 C          -0.3776    2.6691    0.6406 C.ar    1  UNL1       -0.1916
     22 H          -0.8688    0.9207   -2.2129 H       1  UNL1        0.1516
     23 H          -2.6532    2.5984   -2.4686 H       1  UNL1        0.1433
     24 H          -3.0003    4.3177   -0.7233 H       1  UNL1        0.1464
     25 H          -1.5293    4.3605    1.2666 H       1  UNL1        0.1431
     26 H           0.2672    2.6937    1.5108 H       1  UNL1        0.1551
     27 C           1.6494   -1.7264   -0.1935 C.ar    1  UNL1        0.0741
     28 C           1.5341   -2.7930    0.6953 C.ar    1  UNL1       -0.2128
     29 C           2.4995   -3.7865    0.7350 C.ar    1  UNL1       -0.1679
     30 C           3.5870   -3.7344   -0.1257 C.ar    1  UNL1       -0.1197
     31 C           3.6996   -2.6861   -1.0282 C.ar    1  UNL1       -0.1600
     32 C           2.7370   -1.6898   -1.0625 C.ar    1  UNL1       -0.2241
     33 H           0.6877   -2.8392    1.3710 H       1  UNL1        0.1454
     34 H           2.4021   -4.6030    1.4392 H       1  UNL1        0.1427
     35 H           4.3407   -4.5110   -0.0972 H       1  UNL1        0.1454
     36 H           4.5393   -2.6447   -1.7104 H       1  UNL1        0.1417
     37 H           2.8281   -0.8729   -1.7671 H       1  UNL1        0.1563
     38 N          -1.6829   -0.7861    0.5193 N.am    1  UNL1       -0.2295
     39 C          -3.0856   -0.8837    0.4623 C.ar    1  UNL1        0.3071
     40 C          -3.8250    0.1333    1.0630 C.ar    1  UNL1       -0.2975
     41 C          -5.2081    0.0874    1.0533 C.ar    1  UNL1       -0.1060
     42 C          -5.8684   -0.9679    0.4384 C.ar    1  UNL1       -0.1769
     43 C          -5.1293   -1.9780   -0.1582 C.ar    1  UNL1       -0.0988
     44 C          -3.7421   -1.9483   -0.1474 C.ar    1  UNL1       -0.3098
     45 H          -1.3278   -0.1230    1.1889 H       1  UNL1        0.2713
     46 H          -3.3101    0.9663    1.5282 H       1  UNL1        0.1593
     47 H          -5.7709    0.8843    1.5222 H       1  UNL1        0.1453
     48 H          -6.9500   -1.0021    0.4265 H       1  UNL1        0.1440
     49 H          -5.6344   -2.8081   -0.6358 H       1  UNL1        0.1453
     50 H          -3.1720   -2.7396   -0.6079 H       1  UNL1        0.1528
@<TRIPOS>BOND
     1    23    18    1
     2    22    17    1
     3    37    32    1
     4    36    31    1
     5    18    17   ar
     6    18    19   ar
     7    11     6    1
     8    17    16   ar
     9     3     2    2
    10    32    31   ar
    11    32    27   ar
    12    12     7    1
    13    31    30   ar
    14    24    19    1
    15     6     7   ar
    16     6     5   ar
    17    49    43    1
    18    19    20   ar
    19    50    44    1
    20     2     1    1
    21     2    38   am
    22     7     8   ar
    23    16     4    1
    24    16    21   ar
    25     1    27    1
    26     1     4    2
    27    27    28   ar
    28    43    44   ar
    29    43    42   ar
    30    44    39   ar
    31     4     5    1
    32    30    35    1
    33    30    29   ar
    34     5    10   ar
    35    48    42    1
    36    42    41   ar
    37    39    38    1
    38    39    40   ar
    39    20    21   ar
    40    20    25    1
    41    38    45    1
    42    21    26    1
    43    28    29   ar
    44    28    33    1
    45     8    13    1
    46     8     9   ar
    47    29    34    1
    48    41    40   ar
    49    41    47    1
    50    40    46    1
    51    10     9   ar
    52    10    15    1
    53     9    14    1
