@<TRIPOS>MOLECULE
GS-790-0.out
 16 15 0 0 0
SMALL
MULLIKEN_CHARGES
****
Gaussian 16 # wB97XD def2tzvp, opt=(calcfc, maxcycles=70, maxstep=10), freq=norama
@<TRIPOS>ATOM
      1 C           0.2445    0.2151   -0.2218 C.2     1  UNL1       -0.1051
      2 C           1.6811   -0.0765   -0.5985 C.2     1  UNL1        0.3216
      3 O           1.9902    0.0021   -1.7787 O.2     1  UNL1       -0.4648
      4 C          -0.6874   -0.7256   -0.1460 C.2     1  UNL1       -0.0183
      5 BR         -2.5083   -0.4126    0.1667 Br      1  UNL1        0.0185
      6 CL         -0.2601   -2.3852   -0.3312 Cl      1  UNL1       -0.0236
      7 BR         -0.1221    2.0465   -0.0262 Br      1  UNL1        0.0129
      8 N           2.5252   -0.3763    0.3976 N.am    1  UNL1       -0.0955
      9 C           3.9154   -0.6649    0.0999 C.3     1  UNL1       -0.2766
     10 C           2.1583   -0.4690    1.7974 C.3     1  UNL1       -0.2930
     11 H           4.0839   -0.5726   -0.9679 H       1  UNL1        0.1542
     12 H           4.5601    0.0358    0.6334 H       1  UNL1        0.1472
     13 H           4.1584   -1.6795    0.4214 H       1  UNL1        0.1461
     14 H           1.1215   -0.1862    1.9510 H       1  UNL1        0.1715
     15 H           2.3000   -1.4915    2.1529 H       1  UNL1        0.1532
     16 H           2.7921    0.1970    2.3850 H       1  UNL1        0.1517
@<TRIPOS>BOND
     1     3     2    2
     2    11     9    1
     3     2     1    1
     4     2     8   am
     5     6     4    1
     6     1     4    2
     7     1     7    1
     8     4     5    1
     9     9     8    1
    10     9    13    1
    11     9    12    1
    12     8    10    1
    13    10    14    1
    14    10    15    1
    15    10    16    1
