@<TRIPOS>MOLECULE
GS-798-0.out
 16 15 0 0 0
SMALL
MULLIKEN_CHARGES
****
Gaussian 16 # wB97XD def2tzvp, opt=(calcfc, maxcycles=70, maxstep=10), freq=norama
@<TRIPOS>ATOM
      1 C           0.2291    0.5408   -0.2181 C.2     1  UNL1       -0.0270
      2 C           1.6663    0.2459   -0.5953 C.2     1  UNL1        0.3181
      3 O           1.9813    0.3606   -1.7707 O.2     1  UNL1       -0.4650
      4 C          -0.7119   -0.3927   -0.1495 C.2     1  UNL1       -0.0420
      5 BR         -2.5256   -0.0430    0.1615 Br      1  UNL1        0.0167
      6 CL         -0.3046   -2.0537   -0.3431 Cl      1  UNL1       -0.0233
      7 CL         -0.1060    2.2168   -0.0287 Cl      1  UNL1       -0.0358
      8 N           2.5003   -0.0969    0.3946 N.am    1  UNL1       -0.0975
      9 C           3.8866   -0.4012    0.0938 C.3     1  UNL1       -0.2765
     10 C           2.1281   -0.2114    1.7916 C.3     1  UNL1       -0.2934
     11 H           4.0471   -0.3379   -0.9774 H       1  UNL1        0.1541
     12 H           4.5418    0.3076    0.6034 H       1  UNL1        0.1485
     13 H           4.1230   -1.4090    0.4399 H       1  UNL1        0.1457
     14 H           1.1027    0.1068    1.9521 H       1  UNL1        0.1718
     15 H           2.2318   -1.2467    2.1224 H       1  UNL1        0.1538
     16 H           2.7855    0.4166    2.3949 H       1  UNL1        0.1517
@<TRIPOS>BOND
     1     3     2    2
     2    11     9    1
     3     2     1    1
     4     2     8   am
     5     6     4    1
     6     1     4    2
     7     1     7    1
     8     4     5    1
     9     9     8    1
    10     9    13    1
    11     9    12    1
    12     8    10    1
    13    10    14    1
    14    10    15    1
    15    10    16    1
