@<TRIPOS>MOLECULE
GS-78-1.out
 26 26 0 0 0
SMALL
MULLIKEN_CHARGES
****
Gaussian 16 # wB97XD def2tzvp, opt=(maxcycles=70, maxstep=1), freq=noraman, scrf=(
@<TRIPOS>ATOM
      1 C           0.7224    0.0802   -0.3290 C.2     1  UNL1        0.0080
      2 C           2.1138    0.6662   -0.2992 C.2     1  UNL1        0.3066
      3 O           2.3618    1.6473   -0.9900 O.2     1  UNL1       -0.4817
      4 C          -0.3195    0.7418    0.1593 C.2     1  UNL1       -0.2284
      5 C          -1.7474    0.3989    0.1821 C.ar    1  UNL1        0.2489
      6 C          -2.2243   -0.9044    0.3274 C.ar    1  UNL1       -0.2479
      7 C          -3.5871   -1.1548    0.3569 C.ar    1  UNL1       -0.1380
      8 C          -4.4953   -0.1123    0.2402 C.ar    1  UNL1       -0.1399
      9 C          -4.0327    1.1897    0.1111 C.ar    1  UNL1       -0.1429
     10 C          -2.6713    1.4426    0.0936 C.ar    1  UNL1       -0.2386
     11 H          -1.5309   -1.7260    0.4372 H       1  UNL1        0.1584
     12 H          -3.9407   -2.1710    0.4765 H       1  UNL1        0.1460
     13 H          -5.5590   -0.3127    0.2601 H       1  UNL1        0.1477
     14 H          -4.7333    2.0110    0.0307 H       1  UNL1        0.1461
     15 H          -2.3144    2.4618    0.0040 H       1  UNL1        0.1442
     16 H          -0.0706    1.7109    0.5826 H       1  UNL1        0.1722
     17 CL          0.6290   -1.4383   -1.1749 Cl      1  UNL1       -0.0850
     18 N           3.0190    0.0546    0.4825 N.am    1  UNL1       -0.1034
     19 C           4.4001    0.4958    0.4677 C.3     1  UNL1       -0.2839
     20 C           2.7148   -1.0154    1.4129 C.3     1  UNL1       -0.2998
     21 H           4.5698    1.1323   -0.3950 H       1  UNL1        0.1496
     22 H           4.6358    1.0534    1.3773 H       1  UNL1        0.1476
     23 H           5.0542   -0.3756    0.4134 H       1  UNL1        0.1442
     24 H           1.6421   -1.1316    1.5368 H       1  UNL1        0.1692
     25 H           3.1406   -1.9601    1.0679 H       1  UNL1        0.1531
     26 H           3.1450   -0.7732    2.3861 H       1  UNL1        0.1479
@<TRIPOS>BOND
     1    17     1    1
     2     3     2    2
     3    21    19    1
     4     1     2    1
     5     1     4    2
     6     2    18   am
     7    15    10    1
     8    14     9    1
     9    10     9   ar
    10    10     5   ar
    11     9     8   ar
    12     4     5    1
    13     4    16    1
    14     5     6   ar
    15     8    13    1
    16     8     7   ar
    17     6     7   ar
    18     6    11    1
    19     7    12    1
    20    23    19    1
    21    19    18    1
    22    19    22    1
    23    18    20    1
    24    25    20    1
    25    20    24    1
    26    20    26    1
