@<TRIPOS>MOLECULE
GS-797-0.out
 13 12 0 0 0
SMALL
MULLIKEN_CHARGES
****
Gaussian 16 # wB97XD def2tzvp, opt=(calcfc, maxcycles=70, maxstep=10), freq=norama
@<TRIPOS>ATOM
      1 C           0.3906   -0.5339    0.0926 C.2     1  UNL1       -0.0105
      2 C           1.8565   -0.2371    0.3297 C.2     1  UNL1        0.3643
      3 O           2.3513   -0.4224    1.4282 O.2     1  UNL1       -0.4526
      4 C          -0.5521    0.4014    0.0666 C.2     1  UNL1       -0.0418
      5 BR         -2.3802    0.0434   -0.1378 Br      1  UNL1        0.0172
      6 CL         -0.1505    2.0650    0.2488 Cl      1  UNL1       -0.0200
      7 CL          0.0415   -2.2115   -0.0473 Cl      1  UNL1       -0.0367
      8 N           2.5233    0.1933   -0.7426 N.am    1  UNL1       -0.3009
      9 C           3.9342    0.5163   -0.6869 C.3     1  UNL1       -0.2520
     10 H           2.0244    0.3197   -1.6060 H       1  UNL1        0.2907
     11 H           4.2642    0.7953   -1.6836 H       1  UNL1        0.1538
     12 H           4.1142    1.3478   -0.0043 H       1  UNL1        0.1443
     13 H           4.5098   -0.3449   -0.3473 H       1  UNL1        0.1443
@<TRIPOS>BOND
     1    11     9    1
     2    10     8    1
     3     8     9    1
     4     8     2   am
     5     9    13    1
     6     9    12    1
     7     5     4    1
     8     7     1    1
     9     4     1    2
    10     4     6    1
    11     1     2    1
    12     2     3    2
