@<TRIPOS>MOLECULE
GS-728-0.out
 28 29 0 0 0
SMALL
MULLIKEN_CHARGES
****
Gaussian 16 # wB97XD def2tzvp, opt=(calcfc, maxcycles=70, maxstep=10), freq=norama
@<TRIPOS>ATOM
      1 C          -0.2954    0.1501    0.4466 C.2     1  UNL1       -0.0222
      2 C           1.0661    0.2102    1.1129 C.2     1  UNL1        0.3324
      3 O           1.1281    0.1767    2.3205 O.2     1  UNL1       -0.3650
      4 C          -0.8347   -1.0130    0.1123 C.2     1  UNL1       -0.0601
      5 BR         -2.5763   -1.2016   -0.5840 Br      1  UNL1       -0.0028
      6 BR          0.0929   -2.6451    0.3240 Br      1  UNL1       -0.0089
      7 C          -0.9399    1.4759    0.2641 C.ar    1  UNL1        0.1747
      8 C          -1.2055    2.2748    1.3733 C.ar    1  UNL1       -0.2178
      9 C          -1.7839    3.5238    1.2089 C.ar    1  UNL1       -0.1511
     10 C          -2.0871    3.9899   -0.0621 C.ar    1  UNL1       -0.1247
     11 C          -1.8110    3.2025   -1.1709 C.ar    1  UNL1       -0.1451
     12 C          -1.2390    1.9510   -1.0102 C.ar    1  UNL1       -0.2416
     13 H          -0.9646    1.9133    2.3648 H       1  UNL1        0.1531
     14 H          -1.9963    4.1342    2.0770 H       1  UNL1        0.1477
     15 H          -2.5349    4.9672   -0.1891 H       1  UNL1        0.1494
     16 H          -2.0393    3.5635   -2.1654 H       1  UNL1        0.1478
     17 H          -1.0236    1.3403   -1.8777 H       1  UNL1        0.1752
     18 C           2.2589    0.3835    0.2488 C.ar    1  UNL1        0.0671
     19 C           2.1616    0.3488   -1.1403 C.ar    1  UNL1       -0.1664
     20 C           3.2945    0.5110   -1.9205 C.ar    1  UNL1       -0.1686
     21 C           4.5271    0.7104   -1.3162 C.ar    1  UNL1       -0.1128
     22 C           4.6305    0.7460    0.0697 C.ar    1  UNL1       -0.1217
     23 C           3.5015    0.5824    0.8501 C.ar    1  UNL1       -0.2197
     24 H           1.2029    0.1872   -1.6152 H       1  UNL1        0.1750
     25 H           3.2155    0.4810   -2.9991 H       1  UNL1        0.1501
     26 H           5.4123    0.8382   -1.9262 H       1  UNL1        0.1540
     27 H           5.5937    0.9018    0.5376 H       1  UNL1        0.1519
     28 H           3.5666    0.6079    1.9297 H       1  UNL1        0.1501
@<TRIPOS>BOND
     1    25    20    1
     2    16    11    1
     3    26    21    1
     4    20    21   ar
     5    20    19   ar
     6    17    12    1
     7    24    19    1
     8    21    22   ar
     9    11    12   ar
    10    11    10   ar
    11    19    18   ar
    12    12     7   ar
    13     5     4    1
    14    15    10    1
    15    10     9   ar
    16    22    27    1
    17    22    23   ar
    18     4     6    1
    19     4     1    2
    20    18    23   ar
    21    18     2    1
    22     7     1    1
    23     7     8   ar
    24     1     2    1
    25    23    28    1
    26     2     3    2
    27     9     8   ar
    28     9    14    1
    29     8    13    1
