@<TRIPOS>MOLECULE
GS-71-0.out
 30 31 0 0 0
SMALL
MULLIKEN_CHARGES
****
Gaussian 16 # wB97XD def2tzvp, opt=(calcfc, maxcycles=70, maxstep=10), freq=norama
@<TRIPOS>ATOM
      1 C          -0.5242   -0.1526   -0.0727 C.2     1  UNL1       -0.0670
      2 C           0.8676   -0.7409   -0.1282 C.2     1  UNL1        0.4248
      3 O           1.0071   -1.9421   -0.2835 O.2     1  UNL1       -0.4760
      4 C          -1.5659   -0.9790   -0.1369 C.2     1  UNL1       -0.1366
      5 C          -3.0090   -0.7243   -0.0969 C.ar    1  UNL1        0.2216
      6 C          -3.6220    0.3438   -0.7524 C.ar    1  UNL1       -0.2443
      7 C          -4.9964    0.5091   -0.6899 C.ar    1  UNL1       -0.1402
      8 C          -5.7775   -0.3817    0.0322 C.ar    1  UNL1       -0.1322
      9 C          -5.1800   -1.4568    0.6753 C.ar    1  UNL1       -0.1461
     10 C          -3.8093   -1.6347    0.5975 C.ar    1  UNL1       -0.2350
     11 H          -3.0292    1.0353   -1.3342 H       1  UNL1        0.1674
     12 H          -5.4591    1.3370   -1.2117 H       1  UNL1        0.1474
     13 H          -6.8502   -0.2454    0.0835 H       1  UNL1        0.1492
     14 H          -5.7836   -2.1635    1.2300 H       1  UNL1        0.1474
     15 H          -3.3468   -2.4836    1.0866 H       1  UNL1        0.1476
     16 H          -1.2770   -2.0244   -0.1920 H       1  UNL1        0.1795
     17 BR         -0.7142    1.7257    0.1592 Br      1  UNL1       -0.0738
     18 N           1.8893    0.1339    0.0044 N.am    1  UNL1       -0.2553
     19 C           3.2732   -0.1136   -0.0004 C.ar    1  UNL1        0.3032
     20 C           4.1053    0.9928    0.1786 C.ar    1  UNL1       -0.3039
     21 C           5.4794    0.8417    0.1854 C.ar    1  UNL1       -0.0969
     22 C           6.0471   -0.4141    0.0142 C.ar    1  UNL1       -0.1837
     23 C           5.2196   -1.5108   -0.1628 C.ar    1  UNL1       -0.1104
     24 C           3.8378   -1.3754   -0.1722 C.ar    1  UNL1       -0.2876
     25 H           1.6319    1.1004    0.1289 H       1  UNL1        0.2490
     26 H           3.6699    1.9761    0.3134 H       1  UNL1        0.1471
     27 H           6.1088    1.7112    0.3256 H       1  UNL1        0.1475
     28 H           7.1226   -0.5336    0.0194 H       1  UNL1        0.1446
     29 H           5.6488   -2.4958   -0.2973 H       1  UNL1        0.1455
     30 H           3.2039   -2.2352   -0.3104 H       1  UNL1        0.1672
@<TRIPOS>BOND
     1    11     6    1
     2    12     7    1
     3     6     7   ar
     4     6     5   ar
     5     7     8   ar
     6    30    24    1
     7    29    23    1
     8     3     2    2
     9    16     4    1
    10    24    23   ar
    11    24    19   ar
    12    23    22   ar
    13     4     5    1
    14     4     1    2
    15     2     1    1
    16     2    18   am
    17     5    10   ar
    18     1    17    1
    19    19    18    1
    20    19    20   ar
    21    18    25    1
    22    22    28    1
    23    22    21   ar
    24     8    13    1
    25     8     9   ar
    26    20    21   ar
    27    20    26    1
    28    21    27    1
    29    10     9   ar
    30    10    15    1
    31     9    14    1
