@<TRIPOS>MOLECULE
GS-737-0.out
 11 10 0 0 0
SMALL
MULLIKEN_CHARGES
****
Gaussian 16 # wB97XD def2tzvp, opt=(calcfc, maxcycles=70, maxstep=10), freq=norama
@<TRIPOS>ATOM
      1 C           1.1797   -0.7252    0.0000 C.2     1  UNL1       -0.0228
      2 C           2.4497    0.0437    0.0000 C.2     1  UNL1        0.1592
      3 O           3.5286   -0.4983   -0.0000 O.2     1  UNL1       -0.3596
      4 C           0.0060   -0.0853    0.0000 C.2     1  UNL1        0.0015
      5 BR         -1.6524   -0.9790   -0.0000 Br      1  UNL1        0.0001
      6 BR         -0.1953    1.7933    0.0000 Br      1  UNL1       -0.0021
      7 C           1.3405   -2.2136    0.0000 C.3     1  UNL1       -0.3409
      8 H           1.9124   -2.5186    0.8776 H       1  UNL1        0.1476
      9 H           0.3892   -2.7355    0.0000 H       1  UNL1        0.1445
     10 H           1.9123   -2.5186   -0.8776 H       1  UNL1        0.1476
     11 H           2.3728    1.1399    0.0000 H       1  UNL1        0.1251
@<TRIPOS>BOND
     1    10     7    1
     2     3     2    2
     3     4     5    1
     4     4     6    1
     5     4     1    2
     6     1     2    1
     7     1     7    1
     8     2    11    1
     9     7     9    1
    10     7     8    1
