@<TRIPOS>MOLECULE
GS-795-0.out
 10 9 0 0 0
SMALL
MULLIKEN_CHARGES
****
Gaussian 16 # wB97XD def2tzvp, opt=(calcfc, maxcycles=70, maxstep=10), freq=norama
@<TRIPOS>ATOM
      1 C           0.7605   -0.4012    0.0006 C.2     1  UNL1        0.0218
      2 C           2.1967    0.0750    0.1034 C.2     1  UNL1        0.3072
      3 O           2.7828    0.0194    1.1667 O.2     1  UNL1       -0.4284
      4 C          -0.2864    0.4155    0.0171 C.2     1  UNL1       -0.0375
      5 BR         -2.0681   -0.1634   -0.0184 Br      1  UNL1        0.0183
      6 CL         -0.0733    2.1210    0.0973 Cl      1  UNL1       -0.0184
      7 CL          0.6096   -2.1125   -0.0469 Cl      1  UNL1       -0.0336
      8 N           2.7288    0.5035   -1.0455 N.am    1  UNL1       -0.4283
      9 H           3.6815    0.8275   -1.0589 H       1  UNL1        0.2927
     10 H           2.1966    0.5309   -1.8969 H       1  UNL1        0.3062
@<TRIPOS>BOND
     1    10     8    1
     2     9     8    1
     3     8     2   am
     4     7     1    1
     5     5     4    1
     6     1     4    2
     7     1     2    1
     8     4     6    1
     9     2     3    2
