@<TRIPOS>MOLECULE
GS-775-0.out
 20 20 0 0 0
SMALL
MULLIKEN_CHARGES
****
Gaussian 16 # wB97XD def2tzvp, opt=(calcfc, maxcycles=70, maxstep=10), freq=norama
@<TRIPOS>ATOM
      1 C          -1.1577    0.9639   -0.3768 C.2     1  UNL1       -0.2673
      2 C           0.2979    1.1626   -0.0848 C.2     1  UNL1        0.4528
      3 O           0.6686    2.2260    0.3785 O.2     1  UNL1       -0.4574
      4 C          -1.9358   -0.0012    0.0875 C.2     1  UNL1        0.0315
      5 BR         -3.7860   -0.0284   -0.2779 Br      1  UNL1       -0.0037
      6 CL         -1.3962   -1.2996    1.0812 Cl      1  UNL1       -0.0266
      7 H          -1.6106    1.7642   -0.9473 H       1  UNL1        0.1971
      8 N           1.1024    0.1244   -0.4096 N.am    1  UNL1       -0.2869
      9 C           2.4939   -0.0074   -0.2482 C.ar    1  UNL1        0.3107
     10 C           3.0711   -1.1910   -0.7091 C.ar    1  UNL1       -0.2985
     11 C           4.4321   -1.3998   -0.5832 C.ar    1  UNL1       -0.0978
     12 C           5.2380   -0.4332    0.0035 C.ar    1  UNL1       -0.1835
     13 C           4.6619    0.7407    0.4612 C.ar    1  UNL1       -0.1075
     14 C           3.2971    0.9653    0.3420 C.ar    1  UNL1       -0.2915
     15 H           0.6457   -0.6687   -0.8302 H       1  UNL1        0.2769
     16 H           2.4483   -1.9502   -1.1675 H       1  UNL1        0.1473
     17 H           4.8635   -2.3238   -0.9462 H       1  UNL1        0.1480
     18 H           6.3033   -0.5957    0.1019 H       1  UNL1        0.1450
     19 H           5.2787    1.5023    0.9216 H       1  UNL1        0.1462
     20 H           2.8591    1.8821    0.7005 H       1  UNL1        0.1649
@<TRIPOS>BOND
     1    16    10    1
     2     7     1    1
     3    17    11    1
     4    15     8    1
     5    10    11   ar
     6    10     9   ar
     7    11    12   ar
     8     8     9    1
     9     8     2   am
    10     1     2    1
    11     1     4    2
    12     5     4    1
    13     9    14   ar
    14     2     3    2
    15    12    18    1
    16    12    13   ar
    17     4     6    1
    18    14    13   ar
    19    14    20    1
    20    13    19    1
