@<TRIPOS>MOLECULE
GS-700-0.out
 18 17 0 0 0
SMALL
MULLIKEN_CHARGES
****
Gaussian 16 # wB97XD def2tzvp, opt=(calcfc, maxcycles=70, maxstep=10), freq=norama
@<TRIPOS>ATOM
      1 C           0.4216   -0.3382    0.1863 C.2     1  UNL1       -0.0884
      2 C           1.8133    0.2139    0.2163 C.2     1  UNL1        0.4228
      3 O           2.1617    1.2454    0.7373 O.2     1  UNL1       -0.4257
      4 C          -0.5982    0.5001   -0.0049 C.2     1  UNL1        0.0532
      5 BR         -2.3806   -0.1942   -0.0694 Br      1  UNL1       -0.0938
      6 C          -0.5768    1.9764   -0.2229 C.3     1  UNL1       -0.3587
      7 H           0.4400    2.3512   -0.2870 H       1  UNL1        0.1467
      8 H          -1.1144    2.2246   -1.1388 H       1  UNL1        0.1474
      9 H          -1.0818    2.4834    0.6017 H       1  UNL1        0.1505
     10 C           0.3187   -1.8299    0.3387 C.3     1  UNL1       -0.3452
     11 H           1.0763   -2.1972    1.0299 H       1  UNL1        0.1432
     12 H          -0.6599   -2.1217    0.7101 H       1  UNL1        0.1415
     13 H           0.4833   -2.3262   -0.6201 H       1  UNL1        0.1465
     14 O           2.6586   -0.6129   -0.3965 O.3     1  UNL1       -0.2700
     15 C           4.0352   -0.2285   -0.4050 C.3     1  UNL1       -0.1997
     16 H           4.5579   -1.0216   -0.9309 H       1  UNL1        0.1482
     17 H           4.1622    0.7196   -0.9259 H       1  UNL1        0.1404
     18 H           4.4100   -0.1377    0.6137 H       1  UNL1        0.1412
@<TRIPOS>BOND
     1     8     6    1
     2    16    15    1
     3    17    15    1
     4    13    10    1
     5    15    14    1
     6    15    18    1
     7    14     2    1
     8     7     6    1
     9     6     4    1
    10     6     9    1
    11     5     4    1
    12     4     1    2
    13     1     2    1
    14     1    10    1
    15     2     3    2
    16    10    12    1
    17    10    11    1
