@<TRIPOS>MOLECULE
GS-709-0.out
 16 15 0 0 0
SMALL
MULLIKEN_CHARGES
****
Gaussian 16 # wB97XD def2tzvp, opt=(calcfc, maxcycles=70, maxstep=10), freq=norama
@<TRIPOS>ATOM
      1 C           0.3795   -0.0335    0.1276 C.2     1  UNL1       -0.0712
      2 C           1.8522    0.2163    0.3538 C.2     1  UNL1        0.3473
      3 O           2.3884   -0.0772    1.4102 O.2     1  UNL1       -0.4591
      4 C          -0.5213    0.9410    0.1341 C.2     1  UNL1       -0.0113
      5 BR         -2.3690    0.5864   -0.0958 Br      1  UNL1       -0.0534
      6 C          -0.2121    2.3902    0.3365 C.3     1  UNL1       -0.3674
      7 H           0.8504    2.5503    0.5094 H       1  UNL1        0.1541
      8 H          -0.5145    2.9661   -0.5393 H       1  UNL1        0.1586
      9 H          -0.7663    2.7710    1.1952 H       1  UNL1        0.1576
     10 BR         -0.0137   -1.8665   -0.0786 Br      1  UNL1       -0.0270
     11 N           2.4955    0.7573   -0.6864 N.am    1  UNL1       -0.3034
     12 C           3.9101    1.0619   -0.6385 C.3     1  UNL1       -0.2514
     13 H           1.9778    0.9537   -1.5250 H       1  UNL1        0.2889
     14 H           4.2086    1.4720   -1.5993 H       1  UNL1        0.1524
     15 H           4.1215    1.7929    0.1429 H       1  UNL1        0.1429
     16 H           4.4909    0.1610   -0.4381 H       1  UNL1        0.1423
@<TRIPOS>BOND
     1    14    12    1
     2    13    11    1
     3    11    12    1
     4    11     2   am
     5    12    16    1
     6    12    15    1
     7     8     6    1
     8     5     4    1
     9    10     1    1
    10     1     4    2
    11     1     2    1
    12     4     6    1
    13     6     7    1
    14     6     9    1
    15     2     3    2
