@<TRIPOS>MOLECULE
GS-706-0.out
 14 13 0 0 0
SMALL
MULLIKEN_CHARGES
****
Gaussian 16 # wB97XD def2tzvp, opt=(calcfc, maxcycles=70, maxstep=10), freq=norama
@<TRIPOS>ATOM
      1 C          -0.6085    0.3092   -0.0517 C.2     1  UNL1       -0.0809
      2 C          -1.9177    1.0549   -0.0825 C.2     1  UNL1        0.2780
      3 O          -2.0363    2.0428   -0.7684 O.2     1  UNL1       -0.3694
      4 C           0.5714    0.9258    0.0300 C.2     1  UNL1        0.0448
      5 BR          2.1904   -0.0595    0.0626 Br      1  UNL1       -0.0418
      6 C           0.7953    2.4000    0.1279 C.3     1  UNL1       -0.3474
      7 H          -0.1372    2.9404    0.2558 H       1  UNL1        0.1506
      8 H           1.4584    2.6139    0.9664 H       1  UNL1        0.1522
      9 H           1.2817    2.7595   -0.7807 H       1  UNL1        0.1574
     10 BR         -0.7923   -1.5742   -0.1154 Br      1  UNL1       -0.0372
     11 C          -3.0480    0.5319    0.7583 C.3     1  UNL1       -0.3819
     12 H          -2.6912    0.1409    1.7107 H       1  UNL1        0.1599
     13 H          -3.7654    1.3336    0.9170 H       1  UNL1        0.1484
     14 H          -3.5456   -0.2849    0.2316 H       1  UNL1        0.1673
@<TRIPOS>BOND
     1     9     6    1
     2     3     2    2
     3    10     1    1
     4     2     1    1
     5     2    11    1
     6     1     4    2
     7     4     5    1
     8     4     6    1
     9     6     7    1
    10     6     8    1
    11    14    11    1
    12    11    13    1
    13    11    12    1
