@<TRIPOS>MOLECULE
GS-756-0.out
 12 11 0 0 0
SMALL
MULLIKEN_CHARGES
****
Gaussian 16 # wB97XD def2tzvp, opt=(calcfc, maxcycles=70, maxstep=10), freq=norama
@<TRIPOS>ATOM
      1 C          -0.4175    0.8419    0.1036 C.2     1  UNL1        0.0512
      2 C          -1.8721    0.5032    0.3087 C.2     1  UNL1        0.4091
      3 O          -2.4132    0.5861    1.3771 O.2     1  UNL1       -0.3740
      4 C           0.5419   -0.0717    0.0275 C.2     1  UNL1       -0.1096
      5 BR          2.3567    0.3435   -0.1585 Br      1  UNL1        0.0210
      6 BR          0.1277   -1.9034    0.1275 Br      1  UNL1        0.0212
      7 CL         -0.1204    2.5335    0.0461 Cl      1  UNL1       -0.0259
      8 O          -2.4461    0.1508   -0.8239 O.3     1  UNL1       -0.2488
      9 C          -3.8384   -0.1948   -0.7524 C.3     1  UNL1       -0.2010
     10 H          -4.1257   -0.4505   -1.7669 H       1  UNL1        0.1561
     11 H          -3.9755   -1.0467   -0.0884 H       1  UNL1        0.1500
     12 H          -4.4158    0.6544   -0.3918 H       1  UNL1        0.1508
@<TRIPOS>BOND
     1    10     9    1
     2     8     9    1
     3     8     2    1
     4     9    12    1
     5     9    11    1
     6     5     4    1
     7     4     1    2
     8     4     6    1
     9     7     1    1
    10     1     2    1
    11     2     3    2
