@<TRIPOS>MOLECULE
GS-799-0.out
 20 20 0 0 0
SMALL
MULLIKEN_CHARGES
****
Gaussian 16 # wB97XD def2tzvp, opt=(calcfc, maxcycles=70, maxstep=10), freq=norama
@<TRIPOS>ATOM
      1 C          -0.9951   -0.6949    0.0588 C.2     1  UNL1       -0.0442
      2 C           0.4513   -0.7460    0.5088 C.2     1  UNL1        0.4172
      3 O           0.7457   -1.3171    1.5379 O.2     1  UNL1       -0.4284
      4 C          -1.7693    0.3753    0.2021 C.2     1  UNL1       -0.0387
      5 BR         -3.5828    0.4251   -0.2631 Br      1  UNL1        0.0228
      6 CL         -1.1450    1.8334    0.8690 Cl      1  UNL1       -0.0162
      7 CL         -1.5722   -2.1886   -0.5643 Cl      1  UNL1       -0.0310
      8 N           1.3001   -0.1429   -0.3490 N.am    1  UNL1       -0.2669
      9 C           2.6976    0.0104   -0.2505 C.ar    1  UNL1        0.3098
     10 C           3.3196    0.7597   -1.2482 C.ar    1  UNL1       -0.2922
     11 C           4.6886    0.9525   -1.2226 C.ar    1  UNL1       -0.0985
     12 C           5.4545    0.4027   -0.2032 C.ar    1  UNL1       -0.1792
     13 C           4.8323   -0.3416    0.7858 C.ar    1  UNL1       -0.1095
     14 C           3.4593   -0.5453    0.7735 C.ar    1  UNL1       -0.2884
     15 H           0.8769    0.2779   -1.1611 H       1  UNL1        0.2850
     16 H           2.7272    1.1928   -2.0454 H       1  UNL1        0.1492
     17 H           5.1576    1.5367   -2.0038 H       1  UNL1        0.1491
     18 H           6.5257    0.5541   -0.1824 H       1  UNL1        0.1461
     19 H           5.4184   -0.7765    1.5855 H       1  UNL1        0.1474
     20 H           2.9852   -1.1267    1.5470 H       1  UNL1        0.1665
@<TRIPOS>BOND
     1    16    10    1
     2    17    11    1
     3    10    11   ar
     4    10     9   ar
     5    11    12   ar
     6    15     8    1
     7     7     1    1
     8     8     9    1
     9     8     2   am
    10     5     4    1
    11     9    14   ar
    12    12    18    1
    13    12    13   ar
    14     1     4    2
    15     1     2    1
    16     4     6    1
    17     2     3    2
    18    14    13   ar
    19    14    20    1
    20    13    19    1
