@<TRIPOS>MOLECULE
GS-779-0.out
 13 12 0 0 0
SMALL
MULLIKEN_CHARGES
****
Gaussian 16 # wB97XD def2tzvp, opt=(calcfc, maxcycles=70, maxstep=10), freq=norama
@<TRIPOS>ATOM
      1 C          -0.7763   -0.6709    0.0104 C.2     1  UNL1       -0.0380
      2 C          -2.2149   -0.2143   -0.0906 C.2     1  UNL1        0.3043
      3 O          -2.8163   -0.3037   -1.1473 O.2     1  UNL1       -0.4483
      4 C           0.2041    0.2202   -0.0163 C.2     1  UNL1       -0.0261
      5 BR          2.0389   -0.2297    0.0250 Br      1  UNL1       -0.0288
      6 CL         -0.0785    1.9242   -0.1211 Cl      1  UNL1       -0.0486
      7 C          -0.6146   -2.1575    0.0640 C.3     1  UNL1       -0.3105
      8 H          -1.0838   -2.6032   -0.8152 H       1  UNL1        0.1526
      9 H           0.4294   -2.4565    0.0965 H       1  UNL1        0.1411
     10 H          -1.1230   -2.5548    0.9451 H       1  UNL1        0.1502
     11 N          -2.7652    0.2142    1.0531 N.am    1  UNL1       -0.4343
     12 H          -3.7254    0.5150    1.0598 H       1  UNL1        0.2857
     13 H          -2.2281    0.2929    1.8979 H       1  UNL1        0.3006
@<TRIPOS>BOND
     1     3     2    2
     2     8     7    1
     3     6     4    1
     4     2     1    1
     5     2    11   am
     6     4     1    2
     7     4     5    1
     8     1     7    1
     9     7     9    1
    10     7    10    1
    11    11    12    1
    12    11    13    1
