@<TRIPOS>MOLECULE
GS-730-0.out
 11 10 0 0 0
SMALL
MULLIKEN_CHARGES
****
Gaussian 16 # wB97XD def2tzvp, opt=(calcfc, maxcycles=70, maxstep=10), freq=norama
@<TRIPOS>ATOM
      1 C          -0.8156   -1.1272    0.0029 C.2     1  UNL1       -0.2454
      2 C          -2.2986   -0.9909   -0.0000 C.2     1  UNL1        0.3089
      3 O          -2.9335   -2.0263   -0.0263 O.2     1  UNL1       -0.3877
      4 C           0.1667   -0.2301    0.0013 C.2     1  UNL1        0.0516
      5 BR          1.9596   -0.8269    0.0039 Br      1  UNL1       -0.0018
      6 BR          0.0144    1.6393   -0.0069 Br      1  UNL1        0.0253
      7 H          -0.5118   -2.1674    0.0028 H       1  UNL1        0.1723
      8 C          -2.9911    0.3377    0.0302 C.3     1  UNL1       -0.3859
      9 H          -2.6848    0.9136    0.9042 H       1  UNL1        0.1596
     10 H          -2.7310    0.9242   -0.8522 H       1  UNL1        0.1604
     11 H          -4.0650    0.1696    0.0551 H       1  UNL1        0.1427
@<TRIPOS>BOND
     1    10     8    1
     2     3     2    2
     3     6     4    1
     4     2     1    1
     5     2     8    1
     6     4     1    2
     7     4     5    1
     8     7     1    1
     9     8    11    1
    10     8     9    1
