@<TRIPOS>MOLECULE
GS-793-0.out
 8 7 0 0 0
SMALL
MULLIKEN_CHARGES
****
Gaussian 16 # wB97XD def2tzvp, opt=(calcfc, maxcycles=70, maxstep=10), freq=norama
@<TRIPOS>ATOM
      1 C          -1.0347   -0.0447   -0.0000 C.2     1  UNL1        0.0031
      2 C          -2.2671    0.7826    0.0000 C.2     1  UNL1        0.1338
      3 O          -3.3737    0.3119    0.0000 O.2     1  UNL1       -0.3364
      4 C           0.1979    0.4840    0.0000 C.2     1  UNL1        0.0504
      5 BR          1.7573   -0.5443    0.0000 Br      1  UNL1        0.0516
      6 CL          0.4740    2.1759   -0.0000 Cl      1  UNL1        0.0042
      7 CL         -1.2851   -1.7431   -0.0000 Cl      1  UNL1       -0.0410
      8 H          -2.1013    1.8680   -0.0000 H       1  UNL1        0.1344
@<TRIPOS>BOND
     1     1     2    1
     2     1     4    2
     3     1     7    1
     4     2     8    1
     5     2     3    2
     6     4     5    1
     7     4     6    1
