@<TRIPOS>MOLECULE
GS-713-1.out
 11 10 0 0 0
SMALL
MULLIKEN_CHARGES
****
Gaussian 16 # wB97XD def2tzvp, opt=(calcfc, maxcycles=70, maxstep=1), freq=noraman
@<TRIPOS>ATOM
      1 C          -1.0229    0.2461   -0.0000 C.2     1  UNL1       -0.0001
      2 C          -2.4771   -0.0781   -0.0000 C.2     1  UNL1        0.1564
      3 O          -2.9645   -1.1785    0.0000 O.2     1  UNL1       -0.3543
      4 C          -0.0188   -0.6413   -0.0000 C.2     1  UNL1        0.0435
      5 BR          1.7748   -0.0471    0.0000 Br      1  UNL1       -0.0251
      6 C          -0.1465   -2.1251   -0.0000 C.3     1  UNL1       -0.3395
      7 H          -1.1871   -2.4295   -0.0001 H       1  UNL1        0.1589
      8 H           0.3544   -2.5325   -0.8799 H       1  UNL1        0.1573
      9 H           0.3544   -2.5325    0.8799 H       1  UNL1        0.1573
     10 CL         -0.7540    1.9611   -0.0000 Cl      1  UNL1       -0.0783
     11 H          -3.1130    0.8233   -0.0001 H       1  UNL1        0.1239
@<TRIPOS>BOND
     1     8     6    1
     2    11     2    1
     3     7     6    1
     4     6     4    1
     5     6     9    1
     6     2     1    1
     7     2     3    2
     8     4     1    2
     9     4     5    1
    10     1    10    1
