@<TRIPOS>MOLECULE
GS-766-0.out
 26 26 0 0 0
SMALL
MULLIKEN_CHARGES
****
Gaussian 16 # wB97XD def2tzvp, opt=(calcfc, maxcycles=70, maxstep=10), freq=norama
@<TRIPOS>ATOM
      1 C           0.3071   -0.1397   -0.2341 C.2     1  UNL1       -0.1177
      2 C           1.4098   -1.1253   -0.5643 C.2     1  UNL1        0.2765
      3 O           1.6532   -1.3490   -1.7437 O.2     1  UNL1       -0.4741
      4 C           0.5836    1.1542   -0.1431 C.2     1  UNL1        0.0009
      5 BR         -0.7176    2.5064    0.0408 Br      1  UNL1       -0.0039
      6 CL          2.2030    1.7523   -0.2095 Cl      1  UNL1       -0.0417
      7 C          -1.0505   -0.7306   -0.1316 C.ar    1  UNL1        0.2315
      8 C          -1.7964   -0.6009    1.0372 C.ar    1  UNL1       -0.2508
      9 C          -3.0491   -1.1849    1.1354 C.ar    1  UNL1       -0.1395
     10 C          -3.5676   -1.9048    0.0687 C.ar    1  UNL1       -0.1324
     11 C          -2.8251   -2.0444   -1.0951 C.ar    1  UNL1       -0.1454
     12 C          -1.5694   -1.4664   -1.1947 C.ar    1  UNL1       -0.2307
     13 H          -1.3944   -0.0436    1.8738 H       1  UNL1        0.1742
     14 H          -3.6195   -1.0788    2.0492 H       1  UNL1        0.1471
     15 H          -4.5470   -2.3594    0.1459 H       1  UNL1        0.1485
     16 H          -3.2238   -2.6062   -1.9300 H       1  UNL1        0.1469
     17 H          -0.9871   -1.5790   -2.1001 H       1  UNL1        0.1519
     18 N           2.0152   -1.7409    0.4622 N.am    1  UNL1       -0.0839
     19 C           3.0264   -2.7489    0.2090 C.3     1  UNL1       -0.2810
     20 C           1.7377   -1.4776    1.8599 C.3     1  UNL1       -0.2825
     21 H           3.1000   -2.9277   -0.8586 H       1  UNL1        0.1531
     22 H           3.9935   -2.4130    0.5891 H       1  UNL1        0.1466
     23 H           2.7544   -3.6762    0.7166 H       1  UNL1        0.1430
     24 H           1.0502   -0.6451    1.9705 H       1  UNL1        0.1622
     25 H           1.3026   -2.3614    2.3312 H       1  UNL1        0.1511
     26 H           2.6666   -1.2283    2.3758 H       1  UNL1        0.1502
@<TRIPOS>BOND
     1    17    12    1
     2    16    11    1
     3     3     2    2
     4    12    11   ar
     5    12     7   ar
     6    11    10   ar
     7    21    19    1
     8     2     1    1
     9     2    18   am
    10     1     4    2
    11     1     7    1
    12     6     4    1
    13     4     5    1
    14     7     8   ar
    15    10    15    1
    16    10     9   ar
    17    19    18    1
    18    19    22    1
    19    19    23    1
    20    18    20    1
    21     8     9   ar
    22     8    13    1
    23     9    14    1
    24    20    24    1
    25    20    25    1
    26    20    26    1
