@<TRIPOS>MOLECULE
GS-758-0.out
 16 15 0 0 0
SMALL
MULLIKEN_CHARGES
****
Gaussian 16 # wB97XD def2tzvp, opt=(calcfc, maxcycles=70, maxstep=10), freq=norama
@<TRIPOS>ATOM
      1 C           0.2941    0.8055   -0.2394 C.2     1  UNL1        0.0067
      2 C           1.7181    0.4282   -0.5940 C.2     1  UNL1        0.3196
      3 O           2.0272    0.4205   -1.7764 O.2     1  UNL1       -0.4632
      4 C          -0.6887   -0.0736   -0.0919 C.2     1  UNL1       -0.1113
      5 BR         -2.4794    0.3937    0.1947 Br      1  UNL1        0.0125
      6 BR         -0.3297   -1.9200   -0.1564 Br      1  UNL1        0.0124
      7 CL          0.0365    2.5072   -0.1846 Cl      1  UNL1       -0.0361
      8 N           2.5485    0.1569    0.4208 N.am    1  UNL1       -0.0969
      9 C           3.9220   -0.2201    0.1448 C.3     1  UNL1       -0.2758
     10 C           2.1803    0.1807    1.8233 C.3     1  UNL1       -0.2980
     11 H           4.0799   -0.2537   -0.9281 H       1  UNL1        0.1544
     12 H           4.6032    0.5065    0.5913 H       1  UNL1        0.1487
     13 H           4.1252   -1.2025    0.5750 H       1  UNL1        0.1456
     14 H           1.1690    0.5517    1.9582 H       1  UNL1        0.1723
     15 H           2.2457   -0.8246    2.2442 H       1  UNL1        0.1557
     16 H           2.8652    0.8333    2.3666 H       1  UNL1        0.1533
@<TRIPOS>BOND
     1     3     2    2
     2    11     9    1
     3     2     1    1
     4     2     8   am
     5     1     7    1
     6     1     4    2
     7     6     4    1
     8     4     5    1
     9     9     8    1
    10     9    13    1
    11     9    12    1
    12     8    10    1
    13    10    14    1
    14    10    15    1
    15    10    16    1
