@<TRIPOS>MOLECULE
GS-732-0.out
 12 11 0 0 0
SMALL
MULLIKEN_CHARGES
****
Gaussian 16 # wB97XD def2tzvp, opt=(calcfc, maxcycles=70, maxstep=10), freq=norama
@<TRIPOS>ATOM
      1 C           0.7139   -0.8167    0.0000 C.2     1  UNL1       -0.2821
      2 C           2.0553   -0.1918    0.0000 C.2     1  UNL1        0.4624
      3 O           2.3095    0.9859    0.0001 O.2     1  UNL1       -0.4059
      4 C          -0.4561   -0.1878    0.0000 C.2     1  UNL1        0.0324
      5 BR         -2.0518   -1.1920    0.0000 Br      1  UNL1        0.0041
      6 BR         -0.7203    1.6645   -0.0000 Br      1  UNL1        0.0370
      7 H           0.7074   -1.8981    0.0000 H       1  UNL1        0.1849
      8 O           2.9822   -1.1502   -0.0000 O.3     1  UNL1       -0.2726
      9 C           4.3435   -0.7140   -0.0000 C.3     1  UNL1       -0.1948
     10 H           4.9419   -1.6198   -0.0001 H       1  UNL1        0.1505
     11 H           4.5524   -0.1217   -0.8901 H       1  UNL1        0.1420
     12 H           4.5524   -0.1218    0.8900 H       1  UNL1        0.1420
@<TRIPOS>BOND
     1    11     9    1
     2    10     9    1
     3     9     8    1
     4     9    12    1
     5     8     2    1
     6     6     4    1
     7     5     4    1
     8     4     1    2
     9     1     2    1
    10     1     7    1
    11     2     3    2
