@<TRIPOS>MOLECULE
GS-747-1.out
 10 9 0 0 0
SMALL
MULLIKEN_CHARGES
****
Gaussian 16 # wB97XD def2tzvp, opt=(calcfc, maxcycles=70, maxstep=1), freq=noraman
@<TRIPOS>ATOM
      1 C          -0.6773    0.4143   -0.0107 C.2     1  UNL1       -0.0198
      2 C          -0.9337    1.9053   -0.1007 C.2     1  UNL1        0.3101
      3 O          -1.1316    2.4297   -1.1793 O.2     1  UNL1       -0.4265
      4 C           0.5344   -0.1244   -0.0009 C.2     1  UNL1       -0.0788
      5 BR          0.8774   -1.9666    0.0264 Br      1  UNL1        0.0165
      6 BR          2.0700    0.9682   -0.0351 Br      1  UNL1        0.0141
      7 BR         -2.2593   -0.6010   -0.0046 Br      1  UNL1        0.0130
      8 N          -0.9533    2.5400    1.0761 N.am    1  UNL1       -0.4251
      9 H          -1.1302    3.5302    1.1014 H       1  UNL1        0.2917
     10 H          -0.7689    2.0588    1.9383 H       1  UNL1        0.3049
@<TRIPOS>BOND
     1     3     2    2
     2     2     1    1
     3     2     8   am
     4     6     4    1
     5     1     7    1
     6     1     4    2
     7     4     5    1
     8     8     9    1
     9     8    10    1
