@<TRIPOS>MOLECULE
GS-702-0.out
 22 21 0 0 0
SMALL
MULLIKEN_CHARGES
****
Gaussian 16 # wb97xd def2tzvp opt=(calcfc, maxcycles=100, maxstep=10) freq=noraman
@<TRIPOS>ATOM
      1 C          -0.1827    0.6571   -0.0515 C.2     1  UNL1       -0.0866
      2 C          -1.6180    0.4714   -0.4896 C.2     1  UNL1        0.2862
      3 O          -1.9798    0.9780   -1.5471 O.2     1  UNL1       -0.4894
      4 C           0.6882   -0.3085   -0.3114 C.2     1  UNL1       -0.0058
      5 BR          2.5456   -0.0861    0.1060 Br      1  UNL1       -0.1146
      6 C           0.3945   -1.6408   -0.9196 C.3     1  UNL1       -0.3739
      7 H          -0.6645   -1.7354   -1.1581 H       1  UNL1        0.1478
      8 H           0.9681   -1.7813   -1.8370 H       1  UNL1        0.1542
      9 H           0.6663   -2.4442   -0.2324 H       1  UNL1        0.1497
     10 C           0.0802    1.9957    0.5640 C.3     1  UNL1       -0.3247
     11 H          -0.2350    2.7858   -0.1204 H       1  UNL1        0.1477
     12 H          -0.5051    2.1083    1.4804 H       1  UNL1        0.1462
     13 H           1.1307    2.1369    0.8040 H       1  UNL1        0.1370
     14 N          -2.4426   -0.2100    0.3267 N.am    1  UNL1       -0.1081
     15 C          -3.8293   -0.4128   -0.0431 C.3     1  UNL1       -0.2766
     16 C          -2.0503   -0.7912    1.5951 C.3     1  UNL1       -0.2921
     17 H          -4.0066    0.0114   -1.0260 H       1  UNL1        0.1507
     18 H          -4.0536   -1.4814   -0.0614 H       1  UNL1        0.1401
     19 H          -4.4868    0.0681    0.6844 H       1  UNL1        0.1438
     20 H          -1.0328   -0.5133    1.8510 H       1  UNL1        0.1702
     21 H          -2.7200   -0.4375    2.3814 H       1  UNL1        0.1489
     22 H          -2.1155   -1.8810    1.5487 H       1  UNL1        0.1493
@<TRIPOS>BOND
     1     8     6    1
     2     3     2    2
     3     7     6    1
     4    17    15    1
     5     6     4    1
     6     6     9    1
     7     2     1    1
     8     2    14   am
     9     4     1    2
    10     4     5    1
    11    11    10    1
    12    18    15    1
    13     1    10    1
    14    15    14    1
    15    15    19    1
    16    14    16    1
    17    10    13    1
    18    10    12    1
    19    22    16    1
    20    16    20    1
    21    16    21    1
