@<TRIPOS>MOLECULE
GS-76-1.out
 22 22 0 0 0
SMALL
MULLIKEN_CHARGES
****
Gaussian 16 # wB97XD def2tzvp, opt=(maxcycles=70, maxstep=1), freq=noraman, scrf=(
@<TRIPOS>ATOM
      1 C           0.9599    0.0814    0.0173 C.2     1  UNL1       -0.0242
      2 C           2.2999   -0.5801    0.0875 C.2     1  UNL1        0.4441
      3 O           2.4388   -1.7650    0.2731 O.2     1  UNL1       -0.4242
      4 C          -0.1322   -0.6784    0.1267 C.2     1  UNL1       -0.1656
      5 C          -1.5598   -0.3675    0.0835 C.ar    1  UNL1        0.2389
      6 C          -2.1128    0.8830    0.3740 C.ar    1  UNL1       -0.2286
      7 C          -3.4837    1.0735    0.3178 C.ar    1  UNL1       -0.1447
      8 C          -4.3262    0.0290   -0.0351 C.ar    1  UNL1       -0.1260
      9 C          -3.7920   -1.2208   -0.3153 C.ar    1  UNL1       -0.1496
     10 C          -2.4244   -1.4178   -0.2443 C.ar    1  UNL1       -0.2203
     11 H          -1.4777    1.7059    0.6636 H       1  UNL1        0.1524
     12 H          -3.8963    2.0460    0.5537 H       1  UNL1        0.1477
     13 H          -5.3962    0.1863   -0.0824 H       1  UNL1        0.1501
     14 H          -4.4417   -2.0445   -0.5812 H       1  UNL1        0.1480
     15 H          -2.0124   -2.3983   -0.4506 H       1  UNL1        0.1461
     16 H           0.1000   -1.7326    0.2376 H       1  UNL1        0.1693
     17 CL          0.9434    1.7930   -0.2485 Cl      1  UNL1       -0.0808
     18 O           3.3055    0.2643   -0.0750 O.3     1  UNL1       -0.2709
     19 C           4.6199   -0.2978   -0.0228 C.3     1  UNL1       -0.1999
     20 H           5.2997    0.5355   -0.1702 H       1  UNL1        0.1514
     21 H           4.7934   -0.7642    0.9459 H       1  UNL1        0.1433
     22 H           4.7467   -1.0369   -0.8126 H       1  UNL1        0.1436
@<TRIPOS>BOND
     1    22    19    1
     2    14     9    1
     3    15    10    1
     4     9    10   ar
     5     9     8   ar
     6    17     1    1
     7    10     5   ar
     8    20    19    1
     9    13     8    1
    10    18    19    1
    11    18     2    1
    12     8     7   ar
    13    19    21    1
    14     1     2    1
    15     1     4    2
    16     5     4    1
    17     5     6   ar
    18     2     3    2
    19     4    16    1
    20     7     6   ar
    21     7    12    1
    22     6    11    1
