@<TRIPOS>MOLECULE
GS-786-0.out
 11 10 0 0 0
SMALL
MULLIKEN_CHARGES
****
Gaussian 16 # wB97XD def2tzvp, opt=(calcfc, maxcycles=70, maxstep=10), freq=norama
@<TRIPOS>ATOM
      1 C          -0.6486    0.1180   -0.0624 C.2     1  UNL1       -0.0029
      2 C          -1.9096    0.9620   -0.1536 C.2     1  UNL1        0.2159
      3 O          -2.3661    1.2278   -1.2342 O.2     1  UNL1       -0.3335
      4 C           0.5704    0.6367   -0.0325 C.2     1  UNL1       -0.0253
      5 BR          2.1596   -0.3531    0.0487 Br      1  UNL1        0.0199
      6 CL          0.7813    2.3482   -0.0689 Cl      1  UNL1       -0.0226
      7 BR         -0.9998   -1.7244   -0.0146 Br      1  UNL1        0.0161
      8 C          -2.5130    1.3769    1.1500 C.3     1  UNL1       -0.3436
      9 H          -1.7910    1.9788    1.7062 H       1  UNL1        0.1609
     10 H          -3.4255    1.9433    0.9816 H       1  UNL1        0.1485
     11 H          -2.7236    0.4911    1.7532 H       1  UNL1        0.1665
@<TRIPOS>BOND
     1     3     2    2
     2     2     1    1
     3     2     8    1
     4     6     4    1
     5     1     4    2
     6     1     7    1
     7     4     5    1
     8    10     8    1
     9     8     9    1
    10     8    11    1
