@<TRIPOS>MOLECULE
GS-740-0.out
 15 14 0 0 0
SMALL
MULLIKEN_CHARGES
****
Gaussian 16 # wB97XD def2tzvp, opt=(calcfc, maxcycles=70, maxstep=10), freq=norama
@<TRIPOS>ATOM
      1 C          -0.4123    1.0624    0.1175 C.2     1  UNL1       -0.0125
      2 C          -1.8511    0.6721    0.3163 C.2     1  UNL1        0.4199
      3 O          -2.3966    0.6996    1.3885 O.2     1  UNL1       -0.3943
      4 C           0.5164    0.1209    0.0341 C.2     1  UNL1       -0.0879
      5 BR          2.3578    0.4835   -0.1545 Br      1  UNL1       -0.0240
      6 BR          0.1037   -1.7217    0.1176 Br      1  UNL1       -0.0158
      7 C          -0.1860    2.5420    0.0862 C.3     1  UNL1       -0.3251
      8 H          -0.5509    2.9857    1.0146 H       1  UNL1        0.1559
      9 H           0.8645    2.7905   -0.0348 H       1  UNL1        0.1435
     10 H          -0.7509    2.9853   -0.7364 H       1  UNL1        0.1555
     11 O          -2.4396    0.3617   -0.8267 O.3     1  UNL1       -0.2586
     12 C          -3.8246   -0.0032   -0.7535 C.3     1  UNL1       -0.2024
     13 H          -4.1247   -0.2149   -1.7747 H       1  UNL1        0.1531
     14 H          -3.9453   -0.8872   -0.1291 H       1  UNL1        0.1461
     15 H          -4.4097    0.8194   -0.3457 H       1  UNL1        0.1466
@<TRIPOS>BOND
     1    13    12    1
     2    11    12    1
     3    11     2    1
     4    12    15    1
     5    12    14    1
     6    10     7    1
     7     5     4    1
     8     9     7    1
     9     4     1    2
    10     4     6    1
    11     7     1    1
    12     7     8    1
    13     1     2    1
    14     2     3    2
