@<TRIPOS>MOLECULE
GS-762-0.out
 21 21 0 0 0
SMALL
MULLIKEN_CHARGES
****
Gaussian 16 # wB97XD def2tzvp, opt=(calcfc, maxcycles=70, maxstep=10), freq=norama
@<TRIPOS>ATOM
      1 C           0.1864    0.7137   -0.0329 C.2     1  UNL1       -0.0211
      2 C           0.3414    2.2233   -0.0404 C.2     1  UNL1        0.2110
      3 O           0.4108    2.8190   -1.0861 O.2     1  UNL1       -0.3495
      4 C           1.2545   -0.0687   -0.0395 C.2     1  UNL1       -0.0217
      5 BR          1.1814   -1.9517   -0.1078 Br      1  UNL1       -0.0039
      6 CL          2.8605    0.5699   -0.0065 Cl      1  UNL1       -0.0417
      7 C          -1.2198    0.2406   -0.0136 C.ar    1  UNL1        0.1896
      8 C          -1.7288   -0.4238    1.0991 C.ar    1  UNL1       -0.2344
      9 C          -3.0526   -0.8330    1.1192 C.ar    1  UNL1       -0.1254
     10 C          -3.8768   -0.5790    0.0320 C.ar    1  UNL1       -0.1334
     11 C          -3.3757    0.0917   -1.0743 C.ar    1  UNL1       -0.1460
     12 C          -2.0535    0.5075   -1.0963 C.ar    1  UNL1       -0.2063
     13 H          -1.0857   -0.6175    1.9482 H       1  UNL1        0.1649
     14 H          -3.4409   -1.3497    1.9875 H       1  UNL1        0.1485
     15 H          -4.9103   -0.9004    0.0488 H       1  UNL1        0.1498
     16 H          -4.0155    0.2940   -1.9236 H       1  UNL1        0.1482
     17 H          -1.6624    1.0350   -1.9572 H       1  UNL1        0.1521
     18 C           0.3342    2.8827    1.3030 C.3     1  UNL1       -0.3505
     19 H           1.1845    2.5210    1.8856 H       1  UNL1        0.1572
     20 H           0.3816    3.9642    1.2002 H       1  UNL1        0.1468
     21 H          -0.5700    2.5932    1.8433 H       1  UNL1        0.1655
@<TRIPOS>BOND
     1    17    12    1
     2    16    11    1
     3    12    11   ar
     4    12     7   ar
     5     3     2    2
     6    11    10   ar
     7     5     4    1
     8     2     1    1
     9     2    18    1
    10     4     1    2
    11     4     6    1
    12     1     7    1
    13     7     8   ar
    14    10    15    1
    15    10     9   ar
    16     8     9   ar
    17     8    13    1
    18     9    14    1
    19    20    18    1
    20    18    21    1
    21    18    19    1
