@<TRIPOS>MOLECULE
GS-777-0.out
 11 10 0 0 0
SMALL
MULLIKEN_CHARGES
****
Gaussian 16 # wB97XD def2tzvp, opt=(calcfc, maxcycles=70, maxstep=10), freq=norama
@<TRIPOS>ATOM
      1 C           1.1129   -0.4078    0.0000 C.2     1  UNL1       -0.0393
      2 C           2.4228    0.2873    0.0000 C.2     1  UNL1        0.1572
      3 O           3.4697   -0.3152   -0.0000 O.2     1  UNL1       -0.3625
      4 C          -0.0166    0.3082    0.0000 C.2     1  UNL1        0.0498
      5 BR         -1.7349   -0.4647   -0.0000 Br      1  UNL1        0.0034
      6 CL         -0.0747    2.0317   -0.0000 Cl      1  UNL1       -0.0265
      7 C           1.1772   -1.9023    0.0000 C.3     1  UNL1       -0.3388
      8 H           1.7274   -2.2449    0.8776 H       1  UNL1        0.1469
      9 H           0.1933   -2.3605   -0.0000 H       1  UNL1        0.1439
     10 H           1.7274   -2.2449   -0.8776 H       1  UNL1        0.1469
     11 H           2.4076    1.3861    0.0000 H       1  UNL1        0.1191
@<TRIPOS>BOND
     1    10     7    1
     2     9     7    1
     3     3     2    2
     4     4     5    1
     5     4     6    1
     6     4     1    2
     7     7     1    1
     8     7     8    1
     9     1     2    1
    10     2    11    1
