@<TRIPOS>MOLECULE
GS-751-0.out
 20 20 0 0 0
SMALL
MULLIKEN_CHARGES
****
Gaussian 16 # wB97XD def2tzvp, opt=(calcfc, maxcycles=70, maxstep=10), freq=norama
@<TRIPOS>ATOM
      1 C          -0.7332    0.5881    0.2052 C.2     1  UNL1       -0.0988
      2 C           0.7059    0.5086    0.6710 C.2     1  UNL1        0.4376
      3 O           0.9792    0.6875    1.8396 O.2     1  UNL1       -0.4271
      4 C          -1.5123   -0.4748    0.0518 C.2     1  UNL1       -0.0841
      5 BR         -3.3193   -0.4040   -0.4361 Br      1  UNL1        0.0205
      6 BR         -0.8349   -2.2092    0.3460 Br      1  UNL1        0.0154
      7 BR         -1.3302    2.3536   -0.0373 Br      1  UNL1        0.0155
      8 N           1.5762    0.2611   -0.3303 N.am    1  UNL1       -0.2607
      9 C           2.9763    0.1155   -0.2714 C.ar    1  UNL1        0.3089
     10 C           3.6244   -0.2197   -1.4595 C.ar    1  UNL1       -0.2934
     11 C           4.9978   -0.3779   -1.4826 C.ar    1  UNL1       -0.0981
     12 C           5.7426   -0.2049   -0.3236 C.ar    1  UNL1       -0.1795
     13 C           5.0947    0.1286    0.8546 C.ar    1  UNL1       -0.1094
     14 C           3.7167    0.2917    0.8941 C.ar    1  UNL1       -0.2883
     15 H           1.1682    0.1363   -1.2434 H       1  UNL1        0.2835
     16 H           3.0491   -0.3571   -2.3675 H       1  UNL1        0.1493
     17 H           5.4870   -0.6386   -2.4123 H       1  UNL1        0.1490
     18 H           6.8173   -0.3293   -0.3413 H       1  UNL1        0.1460
     19 H           5.6640    0.2671    1.7650 H       1  UNL1        0.1473
     20 H           3.2223    0.5514    1.8156 H       1  UNL1        0.1665
@<TRIPOS>BOND
     1    17    11    1
     2    16    10    1
     3    11    10   ar
     4    11    12   ar
     5    10     9   ar
     6    15     8    1
     7     5     4    1
     8    18    12    1
     9     8     9    1
    10     8     2   am
    11    12    13   ar
    12     9    14   ar
    13     7     1    1
    14     4     1    2
    15     4     6    1
    16     1     2    1
    17     2     3    2
    18    13    14   ar
    19    13    19    1
    20    14    20    1
