@<TRIPOS>MOLECULE
GS-794-0.out
 11 10 0 0 0
SMALL
MULLIKEN_CHARGES
****
Gaussian 16 # wB97XD def2tzvp, opt=(calcfc, maxcycles=70, maxstep=10), freq=norama
@<TRIPOS>ATOM
      1 C          -0.7868   -0.2768   -0.0977 C.2     1  UNL1       -0.0161
      2 C          -2.1802    0.3127   -0.1106 C.2     1  UNL1        0.2773
      3 O          -2.4126    1.3076   -0.7487 O.2     1  UNL1       -0.3459
      4 C           0.3355    0.4403   -0.0043 C.2     1  UNL1        0.0060
      5 BR          2.0452   -0.3326    0.0349 Br      1  UNL1        0.0227
      6 CL          0.3435    2.1477    0.1382 Cl      1  UNL1       -0.0015
      7 CL         -0.7339   -1.9998   -0.1794 Cl      1  UNL1       -0.0426
      8 C          -3.2298   -0.4041    0.6875 C.3     1  UNL1       -0.3796
      9 H          -2.8377   -0.7341    1.6497 H       1  UNL1        0.1625
     10 H          -4.0788    0.2605    0.8269 H       1  UNL1        0.1493
     11 H          -3.5584   -1.2925    0.1446 H       1  UNL1        0.1679
@<TRIPOS>BOND
     1     3     2    2
     2     7     1    1
     3     2     1    1
     4     2     8    1
     5     1     4    2
     6     4     5    1
     7     4     6    1
     8    11     8    1
     9     8    10    1
    10     8     9    1
