@<TRIPOS>MOLECULE
GS-755-0.out
 10 9 0 0 0
SMALL
MULLIKEN_CHARGES
****
Gaussian 16 # wB97XD def2tzvp, opt=(calcfc, maxcycles=70, maxstep=10), freq=norama
@<TRIPOS>ATOM
      1 C           0.7858   -0.7273    0.0082 C.2     1  UNL1        0.0524
      2 C           2.2106   -0.2144    0.1013 C.2     1  UNL1        0.3070
      3 O           2.7673   -0.1526    1.1798 O.2     1  UNL1       -0.4266
      4 C          -0.2861    0.0551    0.0001 C.2     1  UNL1       -0.1019
      5 BR         -2.0452   -0.5886   -0.0252 Br      1  UNL1        0.0141
      6 BR         -0.1110    1.9285    0.0369 Br      1  UNL1        0.0163
      7 CL          0.6893   -2.4456    0.0013 Cl      1  UNL1       -0.0335
      8 N           2.7677    0.1054   -1.0710 N.am    1  UNL1       -0.4262
      9 H           3.7174    0.4378   -1.0930 H       1  UNL1        0.2927
     10 H           2.2579    0.0415   -1.9342 H       1  UNL1        0.3058
@<TRIPOS>BOND
     1    10     8    1
     2     9     8    1
     3     8     2   am
     4     5     4    1
     5     4     1    2
     6     4     6    1
     7     7     1    1
     8     1     2    1
     9     2     3    2
