@<TRIPOS>MOLECULE
GS-720-0.out
 21 21 0 0 0
SMALL
MULLIKEN_CHARGES
****
Gaussian 16 # wB97XD def2tzvp, opt=(calcfc, maxcycles=70, maxstep=10), freq=norama
@<TRIPOS>ATOM
      1 C          -0.5616    0.7308   -0.0576 C.2     1  UNL1        0.0467
      2 C           0.8216    1.1328   -0.5305 C.2     1  UNL1        0.3120
      3 O           0.9411    2.1324   -1.1996 O.2     1  UNL1       -0.3553
      4 C          -1.2177   -0.3172   -0.5394 C.2     1  UNL1       -0.0582
      5 BR         -2.9744   -0.7191    0.0413 Br      1  UNL1       -0.0519
      6 C          -0.6804   -1.2651   -1.5610 C.3     1  UNL1       -0.3593
      7 H           0.3127   -0.9717   -1.8973 H       1  UNL1        0.1568
      8 H          -0.6232   -2.2729   -1.1467 H       1  UNL1        0.1601
      9 H          -1.3419   -1.2945   -2.4276 H       1  UNL1        0.1644
     10 CL         -1.1979    1.8292    1.1138 Cl      1  UNL1       -0.0629
     11 C           1.9765    0.2957   -0.1231 C.ar    1  UNL1        0.0150
     12 C           3.2245    0.5578   -0.6894 C.ar    1  UNL1       -0.1977
     13 C           4.3235   -0.1961   -0.3239 C.ar    1  UNL1       -0.1226
     14 C           4.1868   -1.2109    0.6166 C.ar    1  UNL1       -0.1181
     15 C           2.9504   -1.4721    1.1884 C.ar    1  UNL1       -0.1428
     16 C           1.8450   -0.7242    0.8172 C.ar    1  UNL1       -0.1760
     17 H           3.3167    1.3521   -1.4181 H       1  UNL1        0.1525
     18 H           5.2890    0.0037   -0.7696 H       1  UNL1        0.1525
     19 H           5.0488   -1.7997    0.9034 H       1  UNL1        0.1548
     20 H           2.8460   -2.2596    1.9229 H       1  UNL1        0.1525
     21 H           0.8819   -0.9318    1.2647 H       1  UNL1        0.1774
@<TRIPOS>BOND
     1     9     6    1
     2     7     6    1
     3     6     8    1
     4     6     4    1
     5    17    12    1
     6     3     2    2
     7    18    13    1
     8    12    13   ar
     9    12    11   ar
    10     4     1    2
    11     4     5    1
    12     2    11    1
    13     2     1    1
    14    13    14   ar
    15    11    16   ar
    16     1    10    1
    17    14    19    1
    18    14    15   ar
    19    16    15   ar
    20    16    21    1
    21    15    20    1
