@<TRIPOS>MOLECULE
GS-705-0.out
 11 10 0 0 0
SMALL
MULLIKEN_CHARGES
****
Gaussian 16 # wB97XD def2tzvp, opt=(calcfc, maxcycles=70, maxstep=10), freq=norama
@<TRIPOS>ATOM
      1 C          -0.7696    0.4775    0.0336 C.2     1  UNL1       -0.0416
      2 C          -1.9585    1.3722    0.0808 C.2     1  UNL1        0.1443
      3 O          -1.9622    2.5481   -0.1769 O.2     1  UNL1       -0.3518
      4 C           0.5041    0.8908    0.0393 C.2     1  UNL1        0.0520
      5 BR          1.9263   -0.3524   -0.0231 Br      1  UNL1       -0.0213
      6 C           0.9709    2.3062    0.0975 C.3     1  UNL1       -0.3376
      7 H           0.1540    2.9833    0.3225 H       1  UNL1        0.1555
      8 H           1.7561    2.4028    0.8470 H       1  UNL1        0.1539
      9 H           1.3983    2.5863   -0.8680 H       1  UNL1        0.1618
     10 BR         -1.2750   -1.3473    0.0014 Br      1  UNL1       -0.0443
     11 H          -2.8876    0.8518    0.3678 H       1  UNL1        0.1291
@<TRIPOS>BOND
     1     9     6    1
     2     3     2    2
     3     5     4    1
     4    10     1    1
     5     1     4    2
     6     1     2    1
     7     4     6    1
     8     2    11    1
     9     6     7    1
    10     6     8    1
