@<TRIPOS>MOLECULE
GS-754-0.out
 11 10 0 0 0
SMALL
MULLIKEN_CHARGES
****
Gaussian 16 # wB97XD def2tzvp, opt=(calcfc, maxcycles=70, maxstep=10), freq=norama
@<TRIPOS>ATOM
      1 C          -0.7796   -0.7146   -0.0713 C.2     1  UNL1        0.0932
      2 C          -2.2034   -0.1815   -0.1543 C.2     1  UNL1        0.2178
      3 O          -2.6888    0.0366   -1.2325 O.2     1  UNL1       -0.3311
      4 C           0.3010    0.0511   -0.0233 C.2     1  UNL1       -0.1090
      5 BR          2.0524   -0.6088    0.0503 Br      1  UNL1        0.0138
      6 BR          0.1333    1.9266   -0.0210 Br      1  UNL1        0.0137
      7 CL         -0.7189   -2.4342   -0.0600 Cl      1  UNL1       -0.0320
      8 C          -2.9115   -0.0088    1.1508 C.3     1  UNL1       -0.3450
      9 H          -2.3676    0.7143    1.7627 H       1  UNL1        0.1634
     10 H          -3.9315    0.3290    0.9861 H       1  UNL1        0.1492
     11 H          -2.9094   -0.9551    1.6959 H       1  UNL1        0.1659
@<TRIPOS>BOND
     1     3     2    2
     2     2     1    1
     3     2     8    1
     4     1     7    1
     5     1     4    2
     6     4     6    1
     7     4     5    1
     8    10     8    1
     9     8    11    1
    10     8     9    1
