@<TRIPOS>MOLECULE
GS-760-0.out
 18 18 0 0 0
SMALL
MULLIKEN_CHARGES
****
Gaussian 16 # wB97XD def2tzvp, opt=(calcfc, maxcycles=70, maxstep=10), freq=norama
@<TRIPOS>ATOM
      1 C          -0.3466   -0.8370    0.4797 C.2     1  UNL1        0.0455
      2 C           0.9900   -0.5295    1.1360 C.2     1  UNL1        0.3578
      3 O           1.0505   -0.5340    2.3415 O.2     1  UNL1       -0.3471
      4 C          -1.2232    0.0874    0.1127 C.2     1  UNL1       -0.1170
      5 BR         -2.9014   -0.2936   -0.6249 Br      1  UNL1        0.0166
      6 BR         -0.8138    1.9132    0.3164 Br      1  UNL1        0.0160
      7 CL         -0.6346   -2.5253    0.3181 Cl      1  UNL1       -0.0294
      8 C           2.1534   -0.2864    0.2548 C.ar    1  UNL1        0.0347
      9 C           3.3913   -0.0192    0.8405 C.ar    1  UNL1       -0.2080
     10 C           4.4967    0.2126    0.0446 C.ar    1  UNL1       -0.1199
     11 C           4.3743    0.1773   -1.3399 C.ar    1  UNL1       -0.1152
     12 C           3.1465   -0.0894   -1.9279 C.ar    1  UNL1       -0.1489
     13 C           2.0360   -0.3202   -1.1332 C.ar    1  UNL1       -0.1797
     14 H           3.4710    0.0045    1.9191 H       1  UNL1        0.1534
     15 H           5.4562    0.4212    0.4991 H       1  UNL1        0.1536
     16 H           5.2414    0.3590   -1.9621 H       1  UNL1        0.1557
     17 H           3.0535   -0.1166   -3.0054 H       1  UNL1        0.1537
     18 H           1.0797   -0.5252   -1.5970 H       1  UNL1        0.1781
@<TRIPOS>BOND
     1    17    12    1
     2    16    11    1
     3    12    11   ar
     4    12    13   ar
     5    18    13    1
     6    11    10   ar
     7    13     8   ar
     8     5     4    1
     9    10    15    1
    10    10     9   ar
    11     4     6    1
    12     4     1    2
    13     8     9   ar
    14     8     2    1
    15     7     1    1
    16     1     2    1
    17     9    14    1
    18     2     3    2
