@<TRIPOS>MOLECULE
GS-711-0.out
 23 23 0 0 0
SMALL
MULLIKEN_CHARGES
****
Gaussian 16 # wB97XD def2tzvp, opt=(calcfc, maxcycles=70, maxstep=10), freq=norama
@<TRIPOS>ATOM
      1 C          -0.8806   -0.2388   -0.2274 C.2     1  UNL1       -0.1054
      2 C           0.5639   -0.4025   -0.6421 C.2     1  UNL1        0.4067
      3 O           0.8567   -0.9875   -1.6656 O.2     1  UNL1       -0.4362
      4 C          -1.5317    0.9112   -0.3497 C.2     1  UNL1       -0.0143
      5 BR         -3.3591    1.0693    0.1225 Br      1  UNL1       -0.0475
      6 C          -0.9357    2.1788   -0.8736 C.3     1  UNL1       -0.3692
      7 H           0.0997    2.0385   -1.1788 H       1  UNL1        0.1532
      8 H          -1.5066    2.5279   -1.7346 H       1  UNL1        0.1605
      9 H          -0.9728    2.9563   -0.1093 H       1  UNL1        0.1607
     10 BR         -1.6355   -1.8533    0.3866 Br      1  UNL1       -0.0192
     11 N           1.4357    0.1417    0.2379 N.am    1  UNL1       -0.2639
     12 C           2.8423    0.1877    0.1826 C.ar    1  UNL1        0.3110
     13 C           3.4927    0.8254    1.2386 C.ar    1  UNL1       -0.2964
     14 C           4.8726    0.9130    1.2564 C.ar    1  UNL1       -0.0977
     15 C           5.6227    0.3677    0.2230 C.ar    1  UNL1       -0.1803
     16 C           4.9730   -0.2645   -0.8246 C.ar    1  UNL1       -0.1096
     17 C           3.5885   -0.3613   -0.8566 C.ar    1  UNL1       -0.2904
     18 H           1.0216    0.5742    1.0483 H       1  UNL1        0.2827
     19 H           2.9134    1.2538    2.0481 H       1  UNL1        0.1484
     20 H           5.3626    1.4108    2.0832 H       1  UNL1        0.1485
     21 H           6.7025    0.4362    0.2363 H       1  UNL1        0.1456
     22 H           5.5461   -0.6938   -1.6367 H       1  UNL1        0.1468
     23 H           3.0926   -0.8556   -1.6756 H       1  UNL1        0.1661
@<TRIPOS>BOND
     1     8     6    1
     2    23    17    1
     3     3     2    2
     4    22    16    1
     5     7     6    1
     6     6     4    1
     7     6     9    1
     8    17    16   ar
     9    17    12   ar
    10    16    15   ar
    11     2     1    1
    12     2    11   am
    13     4     1    2
    14     4     5    1
    15     1    10    1
    16    12    11    1
    17    12    13   ar
    18    15    21    1
    19    15    14   ar
    20    11    18    1
    21    13    14   ar
    22    13    19    1
    23    14    20    1
