@<TRIPOS>MOLECULE
GS-771-0.out
 10 9 0 0 0
SMALL
MULLIKEN_CHARGES
****
Gaussian 16 # wB97XD def2tzvp, opt=(calcfc, maxcycles=70, maxstep=10), freq=norama
@<TRIPOS>ATOM
      1 C          -0.8098   -0.7990    0.1439 C.2     1  UNL1       -0.2171
      2 C          -2.2853   -0.5770    0.0175 C.2     1  UNL1        0.3567
      3 O          -2.9319   -1.3118   -0.7127 O.2     1  UNL1       -0.4618
      4 C           0.1558    0.0944   -0.0036 C.2     1  UNL1        0.0284
      5 BR          1.9726   -0.4134    0.0659 Br      1  UNL1       -0.0082
      6 CL         -0.0894    1.7716   -0.3028 Cl      1  UNL1       -0.0281
      7 H          -0.5312   -1.8361    0.2764 H       1  UNL1        0.1958
      8 N          -2.8285    0.4033    0.7518 N.am    1  UNL1       -0.4504
      9 H          -2.2811    0.9756    1.3685 H       1  UNL1        0.2967
     10 H          -3.8180    0.5722    0.6882 H       1  UNL1        0.2880
@<TRIPOS>BOND
     1     3     2    2
     2     6     4    1
     3     4     5    1
     4     4     1    2
     5     2     1    1
     6     2     8   am
     7     1     7    1
     8    10     8    1
     9     8     9    1
