@<TRIPOS>MOLECULE
GS-75-1.out
 20 20 0 0 0
SMALL
MULLIKEN_CHARGES
****
Gaussian 16 # wB97XD def2tzvp, opt=(maxcycles=70, maxstep=1), freq=noraman, scrf=(
@<TRIPOS>ATOM
      1 C           1.3636   -0.0081    0.0168 C.2     1  UNL1        0.0238
      2 C           2.7057   -0.6908    0.1004 C.2     1  UNL1        0.3198
      3 O           2.7740   -1.8905    0.3244 O.2     1  UNL1       -0.4728
      4 C           0.2556   -0.7351    0.1504 C.2     1  UNL1       -0.1827
      5 C          -1.1627   -0.3769    0.1000 C.ar    1  UNL1        0.2392
      6 C          -1.6745    0.8692    0.4697 C.ar    1  UNL1       -0.2330
      7 C          -3.0363    1.1159    0.4052 C.ar    1  UNL1       -0.1409
      8 C          -3.9094    0.1312   -0.0347 C.ar    1  UNL1       -0.1318
      9 C          -3.4156   -1.1155   -0.3921 C.ar    1  UNL1       -0.1478
     10 C          -2.0574   -1.3695   -0.3121 C.ar    1  UNL1       -0.2217
     11 H          -1.0143    1.6437    0.8306 H       1  UNL1        0.1567
     12 H          -3.4175    2.0840    0.7039 H       1  UNL1        0.1474
     13 H          -4.9719    0.3314   -0.0884 H       1  UNL1        0.1493
     14 H          -4.0900   -1.8938   -0.7251 H       1  UNL1        0.1474
     15 H          -1.6770   -2.3485   -0.5778 H       1  UNL1        0.1459
     16 H           0.4636   -1.7915    0.2861 H       1  UNL1        0.1696
     17 CL          1.3614    1.7025   -0.3047 Cl      1  UNL1       -0.1014
     18 N           3.7904    0.0758   -0.0811 N.am    1  UNL1       -0.4344
     19 H           4.6960   -0.3567   -0.0336 H       1  UNL1        0.2851
     20 H           3.7297    1.0602   -0.2662 H       1  UNL1        0.2823
@<TRIPOS>BOND
     1    14     9    1
     2    15    10    1
     3     9    10   ar
     4     9     8   ar
     5    10     5   ar
     6    17     1    1
     7    20    18    1
     8    13     8    1
     9    18    19    1
    10    18     2   am
    11     8     7   ar
    12     1     2    1
    13     1     4    2
    14     5     4    1
    15     5     6   ar
    16     2     3    2
    17     4    16    1
    18     7     6   ar
    19     7    12    1
    20     6    11    1
