@<TRIPOS>MOLECULE
GS-770-0.out
 11 10 0 0 0
SMALL
MULLIKEN_CHARGES
****
Gaussian 16 # wB97XD def2tzvp, opt=(calcfc, maxcycles=70, maxstep=10), freq=norama
@<TRIPOS>ATOM
      1 C           0.8098   -0.7849    0.0002 C.2     1  UNL1       -0.2592
      2 C           2.2893   -0.6321    0.0001 C.2     1  UNL1        0.3147
      3 O           2.9413   -1.6574    0.0002 O.2     1  UNL1       -0.3899
      4 C          -0.1657    0.1200    0.0001 C.2     1  UNL1        0.0950
      5 BR         -1.9681   -0.4437   -0.0001 Br      1  UNL1        0.0021
      6 CL          0.0082    1.8236    0.0002 Cl      1  UNL1       -0.0050
      7 H           0.5042   -1.8236    0.0001 H       1  UNL1        0.1737
      8 C           2.9580    0.7098   -0.0004 C.3     1  UNL1       -0.3905
      9 H           2.6631    1.2857    0.8779 H       1  UNL1        0.1592
     10 H           4.0352    0.5632   -0.0011 H       1  UNL1        0.1407
     11 H           2.6620    1.2852   -0.8786 H       1  UNL1        0.1592
@<TRIPOS>BOND
     1    11     8    1
     2    10     8    1
     3     8     2    1
     4     8     9    1
     5     5     4    1
     6     2     1    1
     7     2     3    2
     8     4     1    2
     9     4     6    1
    10     7     1    1
