@<TRIPOS>MOLECULE
GS-763-0.out
 20 20 0 0 0
SMALL
MULLIKEN_CHARGES
****
Gaussian 16 # wB97XD def2tzvp, opt=(calcfc, maxcycles=70, maxstep=10), freq=norama
@<TRIPOS>ATOM
      1 C          -0.2054    0.7265   -0.0169 C.2     1  UNL1       -0.0835
      2 C          -0.4073    2.2276    0.0001 C.2     1  UNL1        0.2709
      3 O          -0.3574    2.8478    1.0475 O.2     1  UNL1       -0.4367
      4 C          -1.2490   -0.0898    0.0188 C.2     1  UNL1       -0.0123
      5 BR         -1.1010   -1.9664    0.1347 Br      1  UNL1       -0.0040
      6 CL         -2.8786    0.4813    0.0047 Cl      1  UNL1       -0.0383
      7 C           1.2115    0.2831   -0.0217 C.ar    1  UNL1        0.2473
      8 C           1.7467   -0.3515   -1.1389 C.ar    1  UNL1       -0.2349
      9 C           3.0774   -0.7389   -1.1487 C.ar    1  UNL1       -0.1291
     10 C           3.8822   -0.4930   -0.0453 C.ar    1  UNL1       -0.1379
     11 C           3.3537    0.1465    1.0670 C.ar    1  UNL1       -0.1389
     12 C           2.0242    0.5391    1.0791 C.ar    1  UNL1       -0.2215
     13 H           1.1182   -0.5411   -2.0001 H       1  UNL1        0.1619
     14 H           3.4859   -1.2326   -2.0210 H       1  UNL1        0.1478
     15 H           4.9210   -0.7974   -0.0533 H       1  UNL1        0.1489
     16 H           3.9779    0.3411    1.9296 H       1  UNL1        0.1475
     17 H           1.6103    1.0421    1.9435 H       1  UNL1        0.1499
     18 N          -0.5800    2.7896   -1.2028 N.am    1  UNL1       -0.4241
     19 H          -0.6957    3.7867   -1.2733 H       1  UNL1        0.2858
     20 H          -0.6298    2.2363   -2.0395 H       1  UNL1        0.3010
@<TRIPOS>BOND
     1    20    18    1
     2    14     9    1
     3    13     8    1
     4    19    18    1
     5    18     2   am
     6     9     8   ar
     7     9    10   ar
     8     8     7   ar
     9    15    10    1
    10    10    11   ar
    11     7     1    1
    12     7    12   ar
    13     1     2    1
    14     1     4    2
    15     2     3    2
    16     6     4    1
    17     4     5    1
    18    11    12   ar
    19    11    16    1
    20    12    17    1
