@<TRIPOS>MOLECULE
GS-715-0.out
 13 12 0 0 0
SMALL
MULLIKEN_CHARGES
****
Gaussian 16 # wB97XD def2tzvp, opt=(calcfc, maxcycles=70, maxstep=10), freq=norama
@<TRIPOS>ATOM
      1 C          -0.7603   -0.1290   -0.0534 C.2     1  UNL1       -0.0379
      2 C          -2.1761    0.4013   -0.0697 C.2     1  UNL1        0.3303
      3 O          -2.4604    1.4322   -0.6559 O.2     1  UNL1       -0.4530
      4 C           0.3055    0.6649    0.0510 C.2     1  UNL1        0.0316
      5 BR          2.0519   -0.0701    0.0231 Br      1  UNL1       -0.0483
      6 C           0.2995    2.1484    0.2160 C.3     1  UNL1       -0.3414
      7 H          -0.7091    2.5273    0.3452 H       1  UNL1        0.1520
      8 H           0.9092    2.4212    1.0779 H       1  UNL1        0.1503
      9 H           0.7392    2.6205   -0.6645 H       1  UNL1        0.1547
     10 CL         -0.6274   -1.8554   -0.1792 Cl      1  UNL1       -0.0746
     11 N          -3.0778   -0.3323    0.5992 N.am    1  UNL1       -0.4425
     12 H          -4.0379   -0.0344    0.5978 H       1  UNL1        0.2889
     13 H          -2.8374   -1.1855    1.0702 H       1  UNL1        0.2898
@<TRIPOS>BOND
     1     9     6    1
     2     3     2    2
     3    10     1    1
     4     2     1    1
     5     2    11   am
     6     1     4    2
     7     5     4    1
     8     4     6    1
     9     6     7    1
    10     6     8    1
    11    12    11    1
    12    11    13    1
