@<TRIPOS>MOLECULE
GS-743-0.out
 23 23 0 0 0
SMALL
MULLIKEN_CHARGES
****
Gaussian 16 # wB97XD def2tzvp, opt=(calcfc, maxcycles=70, maxstep=10), freq=norama
@<TRIPOS>ATOM
      1 C          -0.8918    1.1433   -0.1320 C.2     1  UNL1       -0.0816
      2 C           0.5322    0.9444   -0.6033 C.2     1  UNL1        0.4309
      3 O           0.8413    1.2181   -1.7472 O.2     1  UNL1       -0.4461
      4 C          -1.7136    0.1074   -0.0378 C.2     1  UNL1       -0.0760
      5 BR         -3.5278    0.2539    0.4657 Br      1  UNL1       -0.0272
      6 BR         -1.1800   -1.6645   -0.4308 Br      1  UNL1       -0.0204
      7 C          -1.2455    2.5763    0.1203 C.3     1  UNL1       -0.3280
      8 H          -1.0452    3.1597   -0.7804 H       1  UNL1        0.1567
      9 H          -2.2888    2.6996    0.3967 H       1  UNL1        0.1420
     10 H          -0.6190    2.9788    0.9193 H       1  UNL1        0.1534
     11 N           1.3750    0.5153    0.3640 N.am    1  UNL1       -0.2679
     12 C           2.7556    0.2517    0.2898 C.ar    1  UNL1        0.3102
     13 C           3.3797   -0.1769    1.4612 C.ar    1  UNL1       -0.2974
     14 C           4.7339   -0.4565    1.4684 C.ar    1  UNL1       -0.0981
     15 C           5.4853   -0.3135    0.3096 C.ar    1  UNL1       -0.1823
     16 C           4.8621    0.1114   -0.8525 C.ar    1  UNL1       -0.1091
     17 C           3.5035    0.3961   -0.8758 C.ar    1  UNL1       -0.2912
     18 H           0.9512    0.3375    1.2607 H       1  UNL1        0.2800
     19 H           2.7997   -0.2903    2.3696 H       1  UNL1        0.1478
     20 H           5.2031   -0.7876    2.3860 H       1  UNL1        0.1479
     21 H           6.5452   -0.5317    0.3147 H       1  UNL1        0.1450
     22 H           5.4360    0.2262   -1.7634 H       1  UNL1        0.1462
     23 H           3.0280    0.7262   -1.7847 H       1  UNL1        0.1651
@<TRIPOS>BOND
     1    23    17    1
     2    22    16    1
     3     3     2    2
     4    17    16   ar
     5    17    12   ar
     6    16    15   ar
     7     8     7    1
     8     2     1    1
     9     2    11   am
    10     6     4    1
    11     1     4    2
    12     1     7    1
    13     4     5    1
    14     7     9    1
    15     7    10    1
    16    12    11    1
    17    12    13   ar
    18    15    21    1
    19    15    14   ar
    20    11    18    1
    21    13    14   ar
    22    13    19    1
    23    14    20    1
