@<TRIPOS>MOLECULE
GS-77-1.out
 23 23 0 0 0
SMALL
MULLIKEN_CHARGES
****
Gaussian 16 # wB97XD def2tzvp, opt=(maxcycles=70, maxstep=1), freq=noraman, scrf=(
@<TRIPOS>ATOM
      1 C          -0.9461    0.0611    0.0147 C.2     1  UNL1       -0.0025
      2 C          -2.3120   -0.5723    0.1057 C.2     1  UNL1        0.3715
      3 O          -2.4218   -1.7705    0.3364 O.2     1  UNL1       -0.4947
      4 C           0.1363   -0.7009    0.1569 C.2     1  UNL1       -0.1757
      5 C           1.5656   -0.3862    0.1040 C.ar    1  UNL1        0.2388
      6 C           2.1157    0.8357    0.4974 C.ar    1  UNL1       -0.2371
      7 C           3.4842    1.0434    0.4319 C.ar    1  UNL1       -0.1416
      8 C           4.3258    0.0426   -0.0321 C.ar    1  UNL1       -0.1325
      9 C           3.7934   -1.1811   -0.4132 C.ar    1  UNL1       -0.1470
     10 C           2.4284   -1.3961   -0.3326 C.ar    1  UNL1       -0.2291
     11 H           1.4800    1.6214    0.8779 H       1  UNL1        0.1569
     12 H           3.8952    1.9932    0.7492 H       1  UNL1        0.1470
     13 H           5.3936    0.2120   -0.0861 H       1  UNL1        0.1489
     14 H           4.4429   -1.9721   -0.7652 H       1  UNL1        0.1469
     15 H           2.0178   -2.3576   -0.6171 H       1  UNL1        0.1456
     16 H          -0.1056   -1.7488    0.3028 H       1  UNL1        0.1699
     17 CL         -0.8791    1.7680   -0.3262 Cl      1  UNL1       -0.1030
     18 N          -3.3691    0.2273   -0.0741 N.am    1  UNL1       -0.2996
     19 C          -4.7211   -0.2814   -0.0080 C.3     1  UNL1       -0.2525
     20 H          -3.2231    1.2029   -0.2617 H       1  UNL1        0.2621
     21 H          -5.4096    0.5433   -0.1722 H       1  UNL1        0.1492
     22 H          -4.8878   -1.0426   -0.7713 H       1  UNL1        0.1393
     23 H          -4.9213   -0.7237    0.9688 H       1  UNL1        0.1392
@<TRIPOS>BOND
     1    22    19    1
     2    14     9    1
     3    15    10    1
     4     9    10   ar
     5     9     8   ar
     6    10     5   ar
     7    17     1    1
     8    20    18    1
     9    21    19    1
    10    13     8    1
    11    18    19    1
    12    18     2   am
    13     8     7   ar
    14    19    23    1
    15     1     2    1
    16     1     4    2
    17     5     4    1
    18     5     6   ar
    19     2     3    2
    20     4    16    1
    21     7     6   ar
    22     7    12    1
    23     6    11    1
