@<TRIPOS>MOLECULE
GS-72-1.out
 28 29 0 0 0
SMALL
MULLIKEN_CHARGES
****
Gaussian 16 # wB97XD def2tzvp, opt=(maxcycles=70, maxstep=1), freq=noraman, scrf=(
@<TRIPOS>ATOM
      1 C          -0.0606    0.4841   -0.3167 C.2     1  UNL1       -0.0251
      2 C           1.2418    1.2366   -0.3527 C.2     1  UNL1        0.3028
      3 O           1.2590    2.3763   -0.7626 O.2     1  UNL1       -0.3694
      4 C          -1.1440    1.0500    0.2077 C.2     1  UNL1       -0.1701
      5 C          -2.5160    0.5527    0.3625 C.ar    1  UNL1        0.2268
      6 C          -2.8215   -0.7720    0.6746 C.ar    1  UNL1       -0.2395
      7 C          -4.1399   -1.1711    0.8246 C.ar    1  UNL1       -0.1403
      8 C          -5.1717   -0.2578    0.6610 C.ar    1  UNL1       -0.1344
      9 C          -4.8784    1.0662    0.3660 C.ar    1  UNL1       -0.1459
     10 C          -3.5608    1.4702    0.2320 C.ar    1  UNL1       -0.2355
     11 H          -2.0275   -1.4906    0.8216 H       1  UNL1        0.1645
     12 H          -4.3613   -2.2008    1.0748 H       1  UNL1        0.1469
     13 H          -6.2007   -0.5745    0.7742 H       1  UNL1        0.1489
     14 H          -5.6766    1.7878    0.2486 H       1  UNL1        0.1472
     15 H          -3.3345    2.5074    0.0157 H       1  UNL1        0.1464
     16 H          -0.9822    2.0662    0.5579 H       1  UNL1        0.1770
     17 BR         -0.0214   -1.2146   -1.1626 Br      1  UNL1       -0.0509
     18 C           2.4746    0.5713    0.1491 C.ar    1  UNL1        0.0919
     19 C           3.7107    0.9884   -0.3389 C.ar    1  UNL1       -0.2116
     20 C           4.8759    0.4209    0.1462 C.ar    1  UNL1       -0.1311
     21 C           4.8135   -0.5504    1.1373 C.ar    1  UNL1       -0.1221
     22 C           3.5852   -0.9583    1.6381 C.ar    1  UNL1       -0.1516
     23 C           2.4168   -0.4071    1.1386 C.ar    1  UNL1       -0.2074
     24 H           3.7471    1.7532   -1.1037 H       1  UNL1        0.1499
     25 H           5.8343    0.7367   -0.2449 H       1  UNL1        0.1505
     26 H           5.7255   -0.9898    1.5209 H       1  UNL1        0.1524
     27 H           3.5372   -1.7082    2.4168 H       1  UNL1        0.1500
     28 H           1.4603   -0.7265    1.5330 H       1  UNL1        0.1795
@<TRIPOS>BOND
     1    17     1    1
     2    24    19    1
     3     3     2    2
     4     2     1    1
     5     2    18    1
     6    19    20   ar
     7    19    18   ar
     8     1     4    2
     9    25    20    1
    10    15    10    1
    11    20    21   ar
    12    18    23   ar
    13     4     5    1
    14     4    16    1
    15    10     5   ar
    16    10     9   ar
    17    14     9    1
    18     5     6   ar
    19     9     8   ar
    20     8    13    1
    21     8     7   ar
    22     6    11    1
    23     6     7   ar
    24     7    12    1
    25    21    26    1
    26    21    22   ar
    27    23    28    1
    28    23    22   ar
    29    22    27    1
