@<TRIPOS>MOLECULE
GS-792-0.out
 18 18 0 0 0
SMALL
MULLIKEN_CHARGES
****
Gaussian 16 # wB97XD def2tzvp, opt=(calcfc, maxcycles=70, maxstep=10), freq=norama
@<TRIPOS>ATOM
      1 C           0.3899    0.3450    0.4197 C.2     1  UNL1       -0.0640
      2 C          -0.9673    0.3215    1.0990 C.2     1  UNL1        0.3633
      3 O          -1.0267    0.5789    2.2771 O.2     1  UNL1       -0.3492
      4 C           1.1478   -0.7333    0.2789 C.2     1  UNL1       -0.0278
      5 BR          2.8596   -0.7517   -0.4817 Br      1  UNL1        0.0226
      6 CL          0.5722   -2.2682    0.8118 Cl      1  UNL1       -0.0200
      7 BR          0.9062    2.0614   -0.1343 Br      1  UNL1        0.0193
      8 C          -2.1527    0.0162    0.2663 C.ar    1  UNL1        0.0357
      9 C          -3.4100    0.0091    0.8710 C.ar    1  UNL1       -0.2080
     10 C          -4.5359   -0.2751    0.1220 C.ar    1  UNL1       -0.1217
     11 C          -4.4145   -0.5525   -1.2349 C.ar    1  UNL1       -0.1135
     12 C          -3.1673   -0.5456   -1.8421 C.ar    1  UNL1       -0.1535
     13 C          -2.0367   -0.2622   -1.0941 C.ar    1  UNL1       -0.1759
     14 H          -3.4888    0.2269    1.9277 H       1  UNL1        0.1533
     15 H          -5.5105   -0.2817    0.5918 H       1  UNL1        0.1533
     16 H          -5.2975   -0.7752   -1.8203 H       1  UNL1        0.1555
     17 H          -3.0749   -0.7615   -2.8982 H       1  UNL1        0.1533
     18 H          -1.0656   -0.2594   -1.5722 H       1  UNL1        0.1773
@<TRIPOS>BOND
     1    17    12    1
     2    12    11   ar
     3    12    13   ar
     4    16    11    1
     5    18    13    1
     6    11    10   ar
     7    13     8   ar
     8     5     4    1
     9     7     1    1
    10    10    15    1
    11    10     9   ar
    12     8     9   ar
    13     8     2    1
    14     4     1    2
    15     4     6    1
    16     1     2    1
    17     9    14    1
    18     2     3    2
