@<TRIPOS>MOLECULE
GS-745-0.out
 8 7 0 0 0
SMALL
MULLIKEN_CHARGES
****
Gaussian 16 # wB97XD def2tzvp, opt=(calcfc, maxcycles=70, maxstep=10), freq=norama
@<TRIPOS>ATOM
      1 C          -0.6780    0.6394    0.0000 C.2     1  UNL1       -0.0484
      2 C          -0.8455    2.1154    0.0000 C.2     1  UNL1        0.1402
      3 O          -1.9156    2.6630   -0.0000 O.2     1  UNL1       -0.3346
      4 C           0.5187    0.0374    0.0000 C.2     1  UNL1        0.0223
      5 BR          0.7488   -1.8168   -0.0000 Br      1  UNL1        0.0513
      6 BR          2.1409    0.9917   -0.0000 Br      1  UNL1        0.0323
      7 BR         -2.2822   -0.3391    0.0000 Br      1  UNL1       -0.0037
      8 H           0.0917    2.6882    0.0000 H       1  UNL1        0.1406
@<TRIPOS>BOND
     1     3     2    2
     2     2     1    1
     3     2     8    1
     4     4     5    1
     5     4     6    1
     6     4     1    2
     7     7     1    1
