@<TRIPOS>MOLECULE
GS-784-0.out
 21 21 0 0 0
SMALL
MULLIKEN_CHARGES
****
Gaussian 16 # wB97XD def2tzvp, opt=(calcfc, maxcycles=70, maxstep=10), freq=norama
@<TRIPOS>ATOM
      1 C           0.5269    0.8615   -0.4230 C.2     1  UNL1       -0.0563
      2 C          -0.8137    1.2694    0.1498 C.2     1  UNL1        0.3709
      3 O          -0.9083    2.3422    0.7018 O.2     1  UNL1       -0.3709
      4 C           1.3277    0.0761    0.2801 C.2     1  UNL1       -0.0342
      5 BR          3.0523   -0.4540   -0.2761 Br      1  UNL1       -0.0258
      6 CL          0.8709   -0.5628    1.8226 Cl      1  UNL1       -0.0498
      7 C           0.8257    1.4640   -1.7593 C.3     1  UNL1       -0.3204
      8 H           0.8041    2.5528   -1.6815 H       1  UNL1        0.1579
      9 H           1.7963    1.1557   -2.1389 H       1  UNL1        0.1431
     10 H           0.0576    1.1715   -2.4790 H       1  UNL1        0.1550
     11 C          -1.9736    0.3660   -0.0552 C.ar    1  UNL1        0.0333
     12 C          -3.2180    0.7414    0.4507 C.ar    1  UNL1       -0.2160
     13 C          -4.3161   -0.0783    0.2694 C.ar    1  UNL1       -0.1189
     14 C          -4.1806   -1.2770   -0.4218 C.ar    1  UNL1       -0.1192
     15 C          -2.9465   -1.6550   -0.9299 C.ar    1  UNL1       -0.1520
     16 C          -1.8439   -0.8364   -0.7464 C.ar    1  UNL1       -0.1836
     17 H          -3.3090    1.6777    0.9851 H       1  UNL1        0.1504
     18 H          -5.2802    0.2134    0.6651 H       1  UNL1        0.1518
     19 H          -5.0416   -1.9177   -0.5639 H       1  UNL1        0.1540
     20 H          -2.8423   -2.5878   -1.4681 H       1  UNL1        0.1518
     21 H          -0.8814   -1.1365   -1.1407 H       1  UNL1        0.1790
@<TRIPOS>BOND
     1    10     7    1
     2     9     7    1
     3     7     8    1
     4     7     1    1
     5    20    15    1
     6    21    16    1
     7    15    16   ar
     8    15    14   ar
     9    16    11   ar
    10    19    14    1
    11     1     2    1
    12     1     4    2
    13    14    13   ar
    14     5     4    1
    15    11     2    1
    16    11    12   ar
    17     2     3    2
    18    13    12   ar
    19    13    18    1
    20     4     6    1
    21    12    17    1
