@<TRIPOS>MOLECULE
GS-746-0.out
 11 10 0 0 0
SMALL
MULLIKEN_CHARGES
****
Gaussian 16 # wB97XD def2tzvp, opt=(calcfc, maxcycles=70, maxstep=10), freq=norama
@<TRIPOS>ATOM
      1 C          -0.6843    0.3759   -0.0580 C.2     1  UNL1        0.0264
      2 C          -1.0040    1.8600   -0.1427 C.2     1  UNL1        0.2196
      3 O          -1.1110    2.3808   -1.2215 O.2     1  UNL1       -0.3326
      4 C           0.5451   -0.1152   -0.0186 C.2     1  UNL1       -0.0863
      5 BR          0.9662   -1.9395    0.0572 Br      1  UNL1        0.0164
      6 BR          2.0286    1.0495   -0.0359 Br      1  UNL1        0.0113
      7 BR         -2.2324   -0.6896   -0.0320 Br      1  UNL1        0.0129
      8 C          -1.2009    2.5609    1.1636 C.3     1  UNL1       -0.3457
      9 H          -0.2843    2.4898    1.7533 H       1  UNL1        0.1627
     10 H          -1.4616    3.6031    0.9975 H       1  UNL1        0.1491
     11 H          -1.9874    2.0604    1.7321 H       1  UNL1        0.1663
@<TRIPOS>BOND
     1     3     2    2
     2     2     1    1
     3     2     8    1
     4     1     7    1
     5     1     4    2
     6     6     4    1
     7     4     5    1
     8    10     8    1
     9     8    11    1
    10     8     9    1
