@<TRIPOS>MOLECULE
GS-772-0.out
 12 11 0 0 0
SMALL
MULLIKEN_CHARGES
****
Gaussian 16 # wB97XD def2tzvp, opt=(calcfc, maxcycles=70, maxstep=10), freq=norama
@<TRIPOS>ATOM
      1 C           0.5357   -0.5346    0.0000 C.2     1  UNL1       -0.2897
      2 C           1.9178   -0.0084    0.0000 C.2     1  UNL1        0.4562
      3 O           2.2549    1.1486    0.0000 O.2     1  UNL1       -0.4080
      4 C          -0.5790    0.1892    0.0000 C.2     1  UNL1        0.0756
      5 BR         -2.2584   -0.6688    0.0000 Br      1  UNL1        0.0065
      6 CL         -0.6700    1.8943   -0.0000 Cl      1  UNL1        0.0066
      7 H           0.4419   -1.6110    0.0000 H       1  UNL1        0.1864
      8 O           2.7751   -1.0300   -0.0000 O.3     1  UNL1       -0.2734
      9 C           4.1637   -0.6909   -0.0000 C.3     1  UNL1       -0.1940
     10 H           4.6966   -1.6368   -0.0000 H       1  UNL1        0.1503
     11 H           4.4138   -0.1145   -0.8898 H       1  UNL1        0.1418
     12 H           4.4138   -0.1145    0.8898 H       1  UNL1        0.1418
@<TRIPOS>BOND
     1    11     9    1
     2    10     9    1
     3     6     4    1
     4     9     8    1
     5     9    12    1
     6     8     2    1
     7     4     5    1
     8     4     1    2
     9     1     2    1
    10     1     7    1
    11     2     3    2
