@<TRIPOS>MOLECULE
GS-712-0.out
 21 21 0 0 0
SMALL
MULLIKEN_CHARGES
****
Gaussian 16 # wB97XD def2tzvp, opt=(calcfc, maxcycles=70, maxstep=10), freq=norama
@<TRIPOS>ATOM
      1 C          -0.4262    0.2908   -0.4263 C.2     1  UNL1       -0.0345
      2 C           0.9366    0.4610   -1.0651 C.2     1  UNL1        0.3386
      3 O           1.0145    0.9792   -2.1546 O.2     1  UNL1       -0.3567
      4 C          -1.1237   -0.8319   -0.5170 C.2     1  UNL1       -0.0334
      5 BR         -2.8536   -0.9950    0.2362 Br      1  UNL1       -0.0502
      6 C          -0.6379   -2.0697   -1.2001 C.3     1  UNL1       -0.3629
      7 H           0.3580   -1.9292   -1.6183 H       1  UNL1        0.1546
      8 H          -0.6034   -2.8997   -0.4930 H       1  UNL1        0.1595
      9 H          -1.3160   -2.3443   -2.0090 H       1  UNL1        0.1633
     10 BR         -0.9936    1.8629    0.4453 Br      1  UNL1       -0.0172
     11 C           2.1243   -0.0002   -0.3050 C.ar    1  UNL1        0.0276
     12 C           3.3880    0.1628   -0.8738 C.ar    1  UNL1       -0.2116
     13 C           4.5139   -0.2598   -0.1933 C.ar    1  UNL1       -0.1198
     14 C           4.3872   -0.8466    1.0608 C.ar    1  UNL1       -0.1195
     15 C           3.1342   -1.0104    1.6326 C.ar    1  UNL1       -0.1475
     16 C           2.0034   -0.5891    0.9521 C.ar    1  UNL1       -0.1779
     17 H           3.4714    0.6213   -1.8501 H       1  UNL1        0.1518
     18 H           5.4930   -0.1338   -0.6366 H       1  UNL1        0.1525
     19 H           5.2701   -1.1769    1.5930 H       1  UNL1        0.1547
     20 H           3.0370   -1.4667    2.6087 H       1  UNL1        0.1524
     21 H           1.0275   -0.7201    1.4009 H       1  UNL1        0.1762
@<TRIPOS>BOND
     1     3     2    2
     2     9     6    1
     3    17    12    1
     4     7     6    1
     5     6     4    1
     6     6     8    1
     7     2     1    1
     8     2    11    1
     9    12    11   ar
    10    12    13   ar
    11    18    13    1
    12     4     1    2
    13     4     5    1
    14     1    10    1
    15    11    16   ar
    16    13    14   ar
    17    16    21    1
    18    16    15   ar
    19    14    19    1
    20    14    15   ar
    21    15    20    1
