@<TRIPOS>MOLECULE
GS-736-0.out
 18 18 0 0 0
SMALL
MULLIKEN_CHARGES
****
Gaussian 16 # wB97XD def2tzvp, opt=(calcfc, maxcycles=70, maxstep=10), freq=norama
@<TRIPOS>ATOM
      1 C           0.0578   -0.3674   -0.5357 C.2     1  UNL1       -0.3115
      2 C          -1.0627    0.6164   -0.5671 C.2     1  UNL1        0.3381
      3 O          -0.8884    1.7714   -0.8920 O.2     1  UNL1       -0.3788
      4 C           1.3068   -0.1231   -0.1617 C.2     1  UNL1        0.0399
      5 BR          2.6003   -1.4953   -0.2076 Br      1  UNL1       -0.0013
      6 BR          1.9504    1.5152    0.4872 Br      1  UNL1        0.0239
      7 H          -0.1781   -1.3784   -0.8427 H       1  UNL1        0.2102
      8 C          -2.4163    0.1028   -0.2145 C.ar    1  UNL1        0.1104
      9 C          -3.5311    0.8626   -0.5668 C.ar    1  UNL1       -0.1940
     10 C          -4.8019    0.4297   -0.2356 C.ar    1  UNL1       -0.1226
     11 C          -4.9697   -0.7602    0.4624 C.ar    1  UNL1       -0.1266
     12 C          -3.8651   -1.5165    0.8254 C.ar    1  UNL1       -0.1456
     13 C          -2.5914   -1.0904    0.4831 C.ar    1  UNL1       -0.2190
     14 H          -3.3868    1.7898   -1.1054 H       1  UNL1        0.1517
     15 H          -5.6645    1.0184   -0.5195 H       1  UNL1        0.1511
     16 H          -5.9646   -1.0973    0.7243 H       1  UNL1        0.1531
     17 H          -3.9945   -2.4393    1.3755 H       1  UNL1        0.1517
     18 H          -1.7364   -1.6838    0.7805 H       1  UNL1        0.1692
@<TRIPOS>BOND
     1    14     9    1
     2     3     2    2
     3     7     1    1
     4     2     1    1
     5     2     8    1
     6     9    10   ar
     7     9     8   ar
     8     1     4    2
     9    15    10    1
    10    10    11   ar
    11     8    13   ar
    12     5     4    1
    13     4     6    1
    14    11    16    1
    15    11    12   ar
    16    13    18    1
    17    13    12   ar
    18    12    17    1
