@<TRIPOS>MOLECULE
GS-724-0.out
 22 22 0 0 0
SMALL
MULLIKEN_CHARGES
****
Gaussian 16 # wB97XD def2tzvp, opt=(calcfc, maxcycles=70, maxstep=10), freq=norama
@<TRIPOS>ATOM
      1 C           0.1246    0.4426    0.1120 C.2     1  UNL1        0.0189
      2 C          -0.3134    1.8727    0.2811 C.2     1  UNL1        0.3745
      3 O          -0.4177    2.4111    1.3516 O.2     1  UNL1       -0.3847
      4 C          -0.7740   -0.5299    0.0498 C.2     1  UNL1       -0.0875
      5 BR         -0.3175   -2.3537   -0.0511 Br      1  UNL1        0.0007
      6 BR         -2.6295   -0.1900    0.0873 Br      1  UNL1       -0.0027
      7 C           1.5966    0.2489    0.0590 C.ar    1  UNL1        0.1866
      8 C           2.2079   -0.1728   -1.1180 C.ar    1  UNL1       -0.2351
      9 C           3.5841   -0.3270   -1.1687 C.ar    1  UNL1       -0.1360
     10 C           4.3569   -0.0583   -0.0478 C.ar    1  UNL1       -0.1296
     11 C           3.7507    0.3708    1.1242 C.ar    1  UNL1       -0.1469
     12 C           2.3747    0.5304    1.1783 C.ar    1  UNL1       -0.2110
     13 H           1.6035   -0.3786   -1.9922 H       1  UNL1        0.1632
     14 H           4.0533   -0.6560   -2.0869 H       1  UNL1        0.1485
     15 H           5.4317   -0.1804   -0.0886 H       1  UNL1        0.1498
     16 H           4.3497    0.5828    2.0004 H       1  UNL1        0.1484
     17 H           1.9004    0.8680    2.0910 H       1  UNL1        0.1533
     18 O          -0.5052    2.4584   -0.8881 O.3     1  UNL1       -0.2520
     19 C          -0.8867    3.8411   -0.8554 C.3     1  UNL1       -0.2069
     20 H          -0.9883    4.1396   -1.8937 H       1  UNL1        0.1544
     21 H          -1.8339    3.9551   -0.3306 H       1  UNL1        0.1470
     22 H          -0.1166    4.4310   -0.3611 H       1  UNL1        0.1471
@<TRIPOS>BOND
     1    14     9    1
     2    13     8    1
     3    20    19    1
     4     9     8   ar
     5     9    10   ar
     6     8     7   ar
     7    18    19    1
     8    18     2    1
     9    19    22    1
    10    19    21    1
    11    15    10    1
    12     5     4    1
    13    10    11   ar
    14     4     6    1
    15     4     1    2
    16     7     1    1
    17     7    12   ar
    18     1     2    1
    19     2     3    2
    20    11    12   ar
    21    11    16    1
    22    12    17    1
