@<TRIPOS>MOLECULE
GS-767-1.out
 30 31 0 0 0
SMALL
MULLIKEN_CHARGES
****
Gaussian 16 # wB97XD def2tzvp, opt=(calcfc, maxcycles=70, maxstep=1), freq=noraman
@<TRIPOS>ATOM
      1 C          -0.6905   -0.0881   -0.2923 C.2     1  UNL1       -0.1017
      2 C           0.7497    0.0463   -0.7415 C.2     1  UNL1        0.3643
      3 O           1.0144    0.2561   -1.9090 O.2     1  UNL1       -0.4415
      4 C          -1.2370   -1.2888   -0.1575 C.2     1  UNL1       -0.0072
      5 BR         -3.0527   -1.5655    0.2654 Br      1  UNL1        0.0010
      6 CL         -0.3446   -2.7473   -0.3973 Cl      1  UNL1       -0.0338
      7 C          -1.4078    1.1949   -0.0847 C.ar    1  UNL1        0.2117
      8 C          -1.7988    1.5829    1.1937 C.ar    1  UNL1       -0.2301
      9 C          -2.4439    2.7942    1.3864 C.ar    1  UNL1       -0.1386
     10 C          -2.7000    3.6263    0.3059 C.ar    1  UNL1       -0.1287
     11 C          -2.3043    3.2461   -0.9685 C.ar    1  UNL1       -0.1444
     12 C          -1.6554    2.0370   -1.1652 C.ar    1  UNL1       -0.2224
     13 H          -1.5967    0.9336    2.0365 H       1  UNL1        0.1629
     14 H          -2.7456    3.0884    2.3834 H       1  UNL1        0.1476
     15 H          -3.2054    4.5715    0.4574 H       1  UNL1        0.1492
     16 H          -2.5015    3.8922   -1.8143 H       1  UNL1        0.1474
     17 H          -1.3423    1.7396   -2.1577 H       1  UNL1        0.1505
     18 N           1.6397   -0.0362    0.2729 N.am    1  UNL1       -0.2501
     19 C           3.0433    0.0697    0.2371 C.ar    1  UNL1        0.3045
     20 C           3.7220   -0.1417    1.4369 C.ar    1  UNL1       -0.2974
     21 C           5.1009   -0.0492    1.4840 C.ar    1  UNL1       -0.0992
     22 C           5.8224    0.2540    0.3371 C.ar    1  UNL1       -0.1809
     23 C           5.1448    0.4634   -0.8531 C.ar    1  UNL1       -0.1123
     24 C           3.7608    0.3750   -0.9163 C.ar    1  UNL1       -0.2842
     25 H           1.2457   -0.2270    1.1805 H       1  UNL1        0.2809
     26 H           3.1649   -0.3800    2.3353 H       1  UNL1        0.1481
     27 H           5.6128   -0.2160    2.4231 H       1  UNL1        0.1481
     28 H           6.9015    0.3259    0.3731 H       1  UNL1        0.1452
     29 H           5.6954    0.7013   -1.7546 H       1  UNL1        0.1464
     30 H           3.2431    0.5402   -1.8468 H       1  UNL1        0.1648
@<TRIPOS>BOND
     1    17    12    1
     2     3     2    2
     3    30    24    1
     4    16    11    1
     5    29    23    1
     6    12    11   ar
     7    12     7   ar
     8    11    10   ar
     9    24    23   ar
    10    24    19   ar
    11    23    22   ar
    12     2     1    1
    13     2    18   am
    14     6     4    1
    15     1     4    2
    16     1     7    1
    17     4     5    1
    18     7     8   ar
    19    19    18    1
    20    19    20   ar
    21    18    25    1
    22    10    15    1
    23    10     9   ar
    24    22    28    1
    25    22    21   ar
    26     8     9   ar
    27     8    13    1
    28     9    14    1
    29    20    21   ar
    30    20    26    1
    31    21    27    1
