@<TRIPOS>MOLECULE
GS-729-0.out
 8 7 0 0 0
SMALL
MULLIKEN_CHARGES
****
Gaussian 16 # wB97XD def2tzvp, opt=(calcfc, maxcycles=70, maxstep=10), freq=norama
@<TRIPOS>ATOM
      1 C           1.0213   -1.1502   -0.0000 C.2     1  UNL1       -0.1875
      2 C           2.4552   -0.8341   -0.0000 C.2     1  UNL1        0.1724
      3 O           3.3020   -1.6964    0.0000 O.2     1  UNL1       -0.3610
      4 C           0.0412   -0.2499   -0.0000 C.2     1  UNL1        0.0294
      5 BR         -1.7594   -0.7836    0.0000 Br      1  UNL1        0.0190
      6 BR          0.3017    1.6107    0.0000 Br      1  UNL1        0.0224
      7 H           0.7659   -2.2027   -0.0000 H       1  UNL1        0.1849
      8 H           2.7323    0.2318   -0.0000 H       1  UNL1        0.1204
@<TRIPOS>BOND
     1     8     2    1
     2     1     2    1
     3     1     4    2
     4     1     7    1
     5     2     3    2
     6     4     5    1
     7     4     6    1
