@<TRIPOS>MOLECULE
GS-778-0.out
 14 13 0 0 0
SMALL
MULLIKEN_CHARGES
****
Gaussian 16 # wB97XD def2tzvp, opt=(calcfc, maxcycles=70, maxstep=10), freq=norama
@<TRIPOS>ATOM
      1 C          -0.7639   -0.6771   -0.0421 C.2     1  UNL1       -0.0107
      2 C          -2.2030   -0.2138   -0.1410 C.2     1  UNL1        0.2275
      3 O          -2.7624   -0.2340   -1.2096 O.2     1  UNL1       -0.3578
      4 C           0.2148    0.2139   -0.0350 C.2     1  UNL1       -0.0333
      5 BR          2.0506   -0.2230    0.0493 Br      1  UNL1       -0.0285
      6 CL         -0.0856    1.9175   -0.1222 Cl      1  UNL1       -0.0529
      7 C          -0.6061   -2.1644    0.0051 C.3     1  UNL1       -0.3067
      8 H          -1.0233   -2.6020   -0.9041 H       1  UNL1        0.1548
      9 H           0.4356   -2.4612    0.0941 H       1  UNL1        0.1431
     10 H          -1.1606   -2.5751    0.8516 H       1  UNL1        0.1498
     11 C          -2.8739    0.1681    1.1425 C.3     1  UNL1       -0.3459
     12 H          -2.3132    0.9652    1.6335 H       1  UNL1        0.1560
     13 H          -3.8985    0.4827    0.9584 H       1  UNL1        0.1434
     14 H          -2.8641   -0.6913    1.8174 H       1  UNL1        0.1612
@<TRIPOS>BOND
     1     3     2    2
     2     8     7    1
     3     2     1    1
     4     2    11    1
     5     6     4    1
     6     1     4    2
     7     1     7    1
     8     4     5    1
     9     7     9    1
    10     7    10    1
    11    13    11    1
    12    11    12    1
    13    11    14    1
