@<TRIPOS>MOLECULE
GS-764-0.out
 22 22 0 0 0
SMALL
MULLIKEN_CHARGES
****
Gaussian 16 # wB97XD def2tzvp, opt=(calcfc, maxcycles=70, maxstep=10), freq=norama
@<TRIPOS>ATOM
      1 C          -0.2875    0.3857    0.1237 C.2     1  UNL1       -0.0055
      2 C          -0.9343    1.7339    0.2946 C.2     1  UNL1        0.3650
      3 O          -1.0834    2.2658    1.3631 O.2     1  UNL1       -0.3866
      4 C          -1.0413   -0.7038    0.0767 C.2     1  UNL1       -0.0313
      5 BR         -0.3439   -2.4498   -0.0216 Br      1  UNL1        0.0050
      6 CL         -2.7644   -0.6331    0.1352 Cl      1  UNL1       -0.0341
      7 C           1.1951    0.4043    0.0529 C.ar    1  UNL1        0.1955
      8 C           1.8475    0.0527   -1.1252 C.ar    1  UNL1       -0.2358
      9 C           3.2309    0.0961   -1.1928 C.ar    1  UNL1       -0.1348
     10 C           3.9701    0.4942   -0.0879 C.ar    1  UNL1       -0.1318
     11 C           3.3221    0.8541    1.0850 C.ar    1  UNL1       -0.1440
     12 C           1.9382    0.8156    1.1559 C.ar    1  UNL1       -0.2133
     13 H           1.2688   -0.2535   -1.9874 H       1  UNL1        0.1637
     14 H           3.7318   -0.1796   -2.1119 H       1  UNL1        0.1484
     15 H           5.0507    0.5266   -0.1419 H       1  UNL1        0.1497
     16 H           3.8946    1.1661    1.9489 H       1  UNL1        0.1483
     17 H           1.4311    1.0985    2.0695 H       1  UNL1        0.1530
     18 O          -1.2585    2.2649   -0.8716 O.3     1  UNL1       -0.2526
     19 C          -1.8470    3.5730   -0.8369 C.3     1  UNL1       -0.2064
     20 H          -2.0344    3.8354   -1.8731 H       1  UNL1        0.1541
     21 H          -2.7788    3.5493   -0.2742 H       1  UNL1        0.1468
     22 H          -1.1579    4.2822   -0.3812 H       1  UNL1        0.1466
@<TRIPOS>BOND
     1    14     9    1
     2    13     8    1
     3    20    19    1
     4     9     8   ar
     5     9    10   ar
     6     8     7   ar
     7    18    19    1
     8    18     2    1
     9    19    22    1
    10    19    21    1
    11    15    10    1
    12    10    11   ar
    13     5     4    1
    14     7     1    1
    15     7    12   ar
    16     4     1    2
    17     4     6    1
    18     1     2    1
    19     2     3    2
    20    11    12   ar
    21    11    16    1
    22    12    17    1
