@<TRIPOS>MOLECULE
GS-859-0.out
 13 12 0 0 0
SMALL
MULLIKEN_CHARGES
****
Gaussian 16 # wB97XD def2tzvp, opt=(calcfc, maxcycles=70, maxstep=10), freq=norama
@<TRIPOS>ATOM
      1 C          -0.1737    0.2540   -0.0000 C.2     1  UNL1       -0.0810
      2 C          -1.5436   -0.3750   -0.0000 C.2     1  UNL1        0.3339
      3 O          -1.7112   -1.5878   -0.0000 O.2     1  UNL1       -0.4851
      4 C           0.8326   -0.6123    0.0000 C.2     1  UNL1       -0.0392
      5 CL          2.5011   -0.1794    0.0000 Cl      1  UNL1       -0.0843
      6 H           0.6630   -1.6785    0.0000 H       1  UNL1        0.1847
      7 C          -0.0280    1.7434   -0.0000 C.3     1  UNL1       -0.4150
      8 H          -0.4966    2.1827    0.8836 H       1  UNL1        0.1593
      9 H           1.0194    2.0347   -0.0000 H       1  UNL1        0.1386
     10 H          -0.4967    2.1827   -0.8836 H       1  UNL1        0.1593
     11 N          -2.5802    0.4830    0.0000 N.am    1  UNL1       -0.4437
     12 H          -3.5132    0.1095    0.0000 H       1  UNL1        0.2801
     13 H          -2.4674    1.4793    0.0000 H       1  UNL1        0.2924
@<TRIPOS>BOND
     1    10     7    1
     2     9     7    1
     3     3     2    2
     4     7     1    1
     5     7     8    1
     6     2     1    1
     7     2    11   am
     8     1     4    2
     9     4     5    1
    10     4     6    1
    11    12    11    1
    12    11    13    1
