@<TRIPOS>MOLECULE
GS-841-0.out
 18 18 0 0 0
SMALL
MULLIKEN_CHARGES
****
Gaussian 16 # wb97xd def2tzvp opt=(calcfc, maxcycles=100, maxstep=10) freq=noraman
@<TRIPOS>ATOM
      1 C          -0.9889   -0.4917    0.0874 C.2     1  UNL1       -0.0655
      2 C          -1.4710   -1.8847    0.3099 C.2     1  UNL1        0.1628
      3 O          -2.6292   -2.2167    0.3736 O.2     1  UNL1       -0.3679
      4 C          -1.9280    0.4392   -0.0781 C.2     1  UNL1       -0.0305
      5 CL         -1.6326    2.0953   -0.4011 Cl      1  UNL1       -0.0465
      6 H          -2.9783    0.1854   -0.0359 H       1  UNL1        0.1847
      7 C           0.4741   -0.2741    0.0585 C.ar    1  UNL1        0.1916
      8 C           1.0856    0.6269    0.9276 C.ar    1  UNL1       -0.2558
      9 C           2.4600    0.8018    0.9034 C.ar    1  UNL1       -0.1224
     10 C           3.2402    0.0766    0.0135 C.ar    1  UNL1       -0.1498
     11 C           2.6403   -0.8282   -0.8500 C.ar    1  UNL1       -0.1281
     12 C           1.2654   -1.0059   -0.8249 C.ar    1  UNL1       -0.2641
     13 H           0.4823    1.1868    1.6307 H       1  UNL1        0.1625
     14 H           2.9233    1.5038    1.5848 H       1  UNL1        0.1475
     15 H           4.3137    0.2145   -0.0045 H       1  UNL1        0.1483
     16 H           3.2425   -1.3972   -1.5465 H       1  UNL1        0.1479
     17 H           0.8031   -1.7093   -1.5073 H       1  UNL1        0.1626
     18 H          -0.6647   -2.6312    0.4240 H       1  UNL1        0.1227
@<TRIPOS>BOND
     1    16    11    1
     2    17    12    1
     3    11    12   ar
     4    11    10   ar
     5    12     7   ar
     6     5     4    1
     7     4     6    1
     8     4     1    2
     9    15    10    1
    10    10     9   ar
    11     7     1    1
    12     7     8   ar
    13     1     2    1
    14     2     3    2
    15     2    18    1
    16     9     8   ar
    17     9    14    1
    18     8    13    1
