@<TRIPOS>MOLECULE
GS-861-0.out
 16 15 0 0 0
SMALL
MULLIKEN_CHARGES
****
Gaussian 16 # wB97XD def2tzvp, opt=(calcfc, maxcycles=70, maxstep=10), freq=norama
@<TRIPOS>ATOM
      1 C          -0.2984    0.2577   -0.0000 C.2     1  UNL1       -0.1063
      2 C           1.0741   -0.3665   -0.0000 C.2     1  UNL1        0.3795
      3 O           1.2463   -1.5813   -0.0004 O.2     1  UNL1       -0.5068
      4 C          -1.3018   -0.6117    0.0001 C.2     1  UNL1       -0.0380
      5 CL         -2.9732   -0.1841    0.0001 Cl      1  UNL1       -0.0882
      6 H          -1.1291   -1.6773    0.0003 H       1  UNL1        0.1812
      7 C          -0.4520    1.7468   -0.0003 C.3     1  UNL1       -0.4150
      8 H           0.0135    2.1890   -0.8842 H       1  UNL1        0.1582
      9 H          -1.5009    2.0321   -0.0002 H       1  UNL1        0.1389
     10 H           0.0137    2.1895    0.8832 H       1  UNL1        0.1581
     11 N           2.1061    0.4926    0.0003 N.am    1  UNL1       -0.3013
     12 C           3.4773    0.0335    0.0001 C.3     1  UNL1       -0.2562
     13 H           1.9342    1.4808    0.0008 H       1  UNL1        0.2733
     14 H           4.1336    0.8999    0.0005 H       1  UNL1        0.1478
     15 H           3.6851   -0.5709    0.8842 H       1  UNL1        0.1374
     16 H           3.6850   -0.5701   -0.8846 H       1  UNL1        0.1374
@<TRIPOS>BOND
     1    16    12    1
     2     8     7    1
     3     3     2    2
     4     7     9    1
     5     7     1    1
     6     7    10    1
     7     1     2    1
     8     1     4    2
     9     2    11   am
    10    12    11    1
    11    12    14    1
    12    12    15    1
    13     5     4    1
    14     4     6    1
    15    11    13    1
