@<TRIPOS>MOLECULE
GS-891-0.out
 13 12 0 0 0
SMALL
MULLIKEN_CHARGES
****
Gaussian 16 # wB97XD def2tzvp, opt=(calcfc, maxcycles=70, maxstep=10), freq=norama
@<TRIPOS>ATOM
      1 C          -0.3094   -0.5605    0.0000 C.2     1  UNL1       -0.2872
      2 C          -1.7052   -0.0446    0.0000 C.2     1  UNL1        0.3763
      3 O          -2.0178    1.1394    0.0002 O.2     1  UNL1       -0.4906
      4 C           0.7915    0.1870    0.0000 C.2     1  UNL1        0.1216
      5 CL          2.3267   -0.6558    0.0000 Cl      1  UNL1       -0.1085
      6 C           0.9367    1.6662   -0.0001 C.3     1  UNL1       -0.3402
      7 H          -0.0414    2.1368   -0.0001 H       1  UNL1        0.1545
      8 H           1.5007    1.9808    0.8799 H       1  UNL1        0.1474
      9 H           1.5007    1.9806   -0.8803 H       1  UNL1        0.1474
     10 H          -0.1966   -1.6369    0.0000 H       1  UNL1        0.1609
     11 N          -2.6359   -1.0219   -0.0001 N.am    1  UNL1       -0.4501
     12 H          -3.6082   -0.7671   -0.0001 H       1  UNL1        0.2791
     13 H          -2.3957   -1.9961   -0.0002 H       1  UNL1        0.2895
@<TRIPOS>BOND
     1     9     6    1
     2    13    11    1
     3     7     6    1
     4    12    11    1
     5     6     4    1
     6     6     8    1
     7    11     2   am
     8     4     1    2
     9     4     5    1
    10    10     1    1
    11     1     2    1
    12     2     3    2
