@<TRIPOS>MOLECULE
GS-878-0.out
 16 15 0 0 0
SMALL
MULLIKEN_CHARGES
****
Gaussian 16 # wB97XD def2tzvp, opt=(calcfc, maxcycles=70, maxstep=10), freq=norama
@<TRIPOS>ATOM
      1 C          -0.4209   -0.1047   -0.2200 C.2     1  UNL1       -0.0641
      2 C           0.9982   -0.5998   -0.3903 C.2     1  UNL1        0.3281
      3 O           1.2170   -1.4939   -1.1967 O.2     1  UNL1       -0.4736
      4 C          -1.3444   -0.8710    0.3360 C.2     1  UNL1       -0.1058
      5 CL         -2.9966   -0.4461    0.5061 Cl      1  UNL1       -0.0649
      6 H          -1.0878   -1.8449    0.7278 H       1  UNL1        0.2012
      7 CL         -0.7530    1.4519   -0.8876 Cl      1  UNL1       -0.0591
      8 N           1.9438    0.0007    0.3476 N.am    1  UNL1       -0.0986
      9 C           3.3385   -0.3426    0.1452 C.3     1  UNL1       -0.2829
     10 C           1.6839    0.9709    1.3943 C.3     1  UNL1       -0.3008
     11 H           3.4443   -0.9052   -0.7769 H       1  UNL1        0.1507
     12 H           3.9279    0.5733    0.0853 H       1  UNL1        0.1456
     13 H           3.7090   -0.9440    0.9785 H       1  UNL1        0.1497
     14 H           0.6277    1.0040    1.6441 H       1  UNL1        0.1694
     15 H           2.2358    0.6819    2.2899 H       1  UNL1        0.1501
     16 H           2.0118    1.9661    1.0869 H       1  UNL1        0.1550
@<TRIPOS>BOND
     1     3     2    2
     2     7     1    1
     3    11     9    1
     4     2     1    1
     5     2     8   am
     6     1     4    2
     7    12     9    1
     8     9     8    1
     9     9    13    1
    10     4     5    1
    11     4     6    1
    12     8    10    1
    13    16    10    1
    14    10    14    1
    15    10    15    1
