@<TRIPOS>MOLECULE
GS-805-1.out
 33 34 0 0 0
SMALL
MULLIKEN_CHARGES
****
Gaussian 16 # wB97XD def2tzvp, opt=(calcfc, maxcycles=70, maxstep=1), freq=noraman
@<TRIPOS>ATOM
      1 C           0.5418    0.1328    0.0526 C.2     1  UNL1        0.0635
      2 C           0.0682    1.5517    0.2633 C.2     1  UNL1        0.2300
      3 O           0.3588    2.1644    1.2819 O.2     1  UNL1       -0.4642
      4 C          -0.3439   -0.8562   -0.0700 C.2     1  UNL1        0.0536
      5 CL          0.1945   -2.4907   -0.3854 Cl      1  UNL1       -0.0873
      6 C          -1.8132   -0.7166    0.0413 C.ar    1  UNL1        0.0659
      7 C          -2.6530   -1.1776   -0.9705 C.ar    1  UNL1       -0.2108
      8 C          -4.0231   -1.0046   -0.8723 C.ar    1  UNL1       -0.1459
      9 C          -4.5705   -0.3827    0.2423 C.ar    1  UNL1       -0.1262
     10 C          -3.7409    0.0637    1.2597 C.ar    1  UNL1       -0.1477
     11 C          -2.3680   -0.1035    1.1618 C.ar    1  UNL1       -0.1895
     12 H          -2.2301   -1.6637   -1.8407 H       1  UNL1        0.1529
     13 H          -4.6663   -1.3558   -1.6689 H       1  UNL1        0.1476
     14 H          -5.6422   -0.2519    0.3186 H       1  UNL1        0.1492
     15 H          -4.1616    0.5394    2.1361 H       1  UNL1        0.1481
     16 H          -1.7218    0.2401    1.9595 H       1  UNL1        0.1593
     17 C           2.0166   -0.0218    0.0394 C.ar    1  UNL1        0.1680
     18 C           2.7702    0.6413   -0.9258 C.ar    1  UNL1       -0.2134
     19 C           4.1517    0.5272   -0.9380 C.ar    1  UNL1       -0.1560
     20 C           4.7947   -0.2390    0.0236 C.ar    1  UNL1       -0.1325
     21 C           4.0504   -0.8898    0.9975 C.ar    1  UNL1       -0.1322
     22 C           2.6685   -0.7823    1.0059 C.ar    1  UNL1       -0.2614
     23 H           2.2714    1.2454   -1.6745 H       1  UNL1        0.1477
     24 H           4.7264    1.0401   -1.6986 H       1  UNL1        0.1454
     25 H           5.8738   -0.3251    0.0170 H       1  UNL1        0.1474
     26 H           4.5470   -1.4817    1.7558 H       1  UNL1        0.1455
     27 H           2.0894   -1.2873    1.7685 H       1  UNL1        0.1581
     28 N          -0.6311    2.0883   -0.7450 N.am    1  UNL1       -0.2660
     29 C          -1.2044    3.4133   -0.6604 C.3     1  UNL1       -0.2596
     30 H          -0.8600    1.5067   -1.5317 H       1  UNL1        0.2806
     31 H          -1.6352    3.6688   -1.6250 H       1  UNL1        0.1504
     32 H          -1.9853    3.4542    0.1020 H       1  UNL1        0.1393
     33 H          -0.4361    4.1438   -0.4085 H       1  UNL1        0.1405
@<TRIPOS>BOND
     1    12     7    1
     2    24    19    1
     3    23    18    1
     4    13     8    1
     5    31    29    1
     6    30    28    1
     7     7     8   ar
     8     7     6   ar
     9    19    18   ar
    10    19    20   ar
    11    18    17   ar
    12     8     9   ar
    13    28    29    1
    14    28     2   am
    15    29    33    1
    16    29    32    1
    17     5     4    1
    18     4     6    1
    19     4     1    2
    20    25    20    1
    21    20    21   ar
    22    17     1    1
    23    17    22   ar
    24     6    11   ar
    25     1     2    1
    26     9    14    1
    27     9    10   ar
    28     2     3    2
    29    21    22   ar
    30    21    26    1
    31    22    27    1
    32    11    10   ar
    33    11    16    1
    34    10    15    1
