@<TRIPOS>MOLECULE
GS-804-1.out
 32 33 0 0 0
SMALL
MULLIKEN_CHARGES
****
Gaussian 16 # wB97XD def2tzvp, opt=(calcfc, maxcycles=70, maxstep=1), freq=noraman
@<TRIPOS>ATOM
      1 C           0.5483    0.1559    0.0199 C.2     1  UNL1        0.0603
      2 C           0.0728    1.5689    0.1896 C.2     1  UNL1        0.3164
      3 O           0.4504    2.2853    1.0830 O.2     1  UNL1       -0.3965
      4 C          -0.3357   -0.8385   -0.0819 C.2     1  UNL1        0.0358
      5 CL          0.2158   -2.4721   -0.3520 Cl      1  UNL1       -0.0758
      6 C          -1.8029   -0.7072    0.0399 C.ar    1  UNL1        0.1793
      7 C          -2.6498   -1.1977   -0.9514 C.ar    1  UNL1       -0.2403
      8 C          -4.0196   -1.0334   -0.8396 C.ar    1  UNL1       -0.1415
      9 C          -4.5587   -0.3924    0.2685 C.ar    1  UNL1       -0.1329
     10 C          -3.7215    0.0812    1.2668 C.ar    1  UNL1       -0.1341
     11 C          -2.3486   -0.0774    1.1552 C.ar    1  UNL1       -0.2380
     12 H          -2.2331   -1.6975   -1.8166 H       1  UNL1        0.1536
     13 H          -4.6697   -1.4061   -1.6206 H       1  UNL1        0.1480
     14 H          -5.6306   -0.2688    0.3549 H       1  UNL1        0.1496
     15 H          -4.1355    0.5705    2.1388 H       1  UNL1        0.1490
     16 H          -1.6968    0.2823    1.9418 H       1  UNL1        0.1654
     17 C           2.0241   -0.0022    0.0294 C.ar    1  UNL1        0.1530
     18 C           2.7875    0.5853   -0.9756 C.ar    1  UNL1       -0.2168
     19 C           4.1686    0.4637   -0.9681 C.ar    1  UNL1       -0.1470
     20 C           4.7993   -0.2359    0.0506 C.ar    1  UNL1       -0.1333
     21 C           4.0440   -0.8129    1.0619 C.ar    1  UNL1       -0.1326
     22 C           2.6628   -0.6968    1.0522 C.ar    1  UNL1       -0.2465
     23 H           2.2981    1.1342   -1.7715 H       1  UNL1        0.1493
     24 H           4.7522    0.9176   -1.7588 H       1  UNL1        0.1464
     25 H           5.8778   -0.3284    0.0585 H       1  UNL1        0.1481
     26 H           4.5314   -1.3534    1.8632 H       1  UNL1        0.1462
     27 H           2.0744   -1.1442    1.8432 H       1  UNL1        0.1578
     28 O          -0.7639    1.9487   -0.7663 O.3     1  UNL1       -0.2595
     29 C          -1.3239    3.2591   -0.6383 C.3     1  UNL1       -0.2062
     30 H          -1.9734    3.3850   -1.4989 H       1  UNL1        0.1517
     31 H          -1.8981    3.3311    0.2850 H       1  UNL1        0.1454
     32 H          -0.5370    4.0118   -0.6409 H       1  UNL1        0.1459
@<TRIPOS>BOND
     1    12     7    1
     2    23    18    1
     3    24    19    1
     4    13     8    1
     5    30    29    1
     6    18    19   ar
     7    18    17   ar
     8    19    20   ar
     9     7     8   ar
    10     7     6   ar
    11     8     9   ar
    12    28    29    1
    13    28     2    1
    14    32    29    1
    15    29    31    1
    16     5     4    1
    17     4     1    2
    18     4     6    1
    19     1    17    1
    20     1     2    1
    21    17    22   ar
    22     6    11   ar
    23    20    25    1
    24    20    21   ar
    25     2     3    2
    26     9    14    1
    27     9    10   ar
    28    22    21   ar
    29    22    27    1
    30    21    26    1
    31    11    10   ar
    32    11    16    1
    33    10    15    1
