@<TRIPOS>MOLECULE
GS-824-1.out
 31 32 0 0 0
SMALL
MULLIKEN_CHARGES
****
Gaussian 16 # wB97XD def2tzvp, opt=(calcfc, maxcycles=70, maxstep=1), freq=noraman
@<TRIPOS>ATOM
      1 C          -1.2441   -1.4834    0.2015 C.2     1  UNL1       -0.0261
      2 C           0.1174   -1.6051    0.8395 C.2     1  UNL1        0.2714
      3 O           0.2175   -2.1604    1.9140 O.2     1  UNL1       -0.3809
      4 C          -1.7241   -0.2784   -0.1030 C.2     1  UNL1        0.0129
      5 CL         -3.2971   -0.1125   -0.8586 Cl      1  UNL1       -0.1047
      6 C          -1.0475    1.0099    0.1594 C.ar    1  UNL1        0.2233
      7 C          -0.8169    1.9168   -0.8737 C.ar    1  UNL1       -0.2445
      8 C          -0.1256    3.0901   -0.6303 C.ar    1  UNL1       -0.1318
      9 C           0.3306    3.3797    0.6502 C.ar    1  UNL1       -0.1357
     10 C           0.0856    2.4928    1.6861 C.ar    1  UNL1       -0.1355
     11 C          -0.6035    1.3134    1.4431 C.ar    1  UNL1       -0.2451
     12 H          -1.1646    1.6912   -1.8739 H       1  UNL1        0.1534
     13 H           0.0624    3.7807   -1.4423 H       1  UNL1        0.1472
     14 H           0.8707    4.2988    0.8381 H       1  UNL1        0.1485
     15 H           0.4273    2.7172    2.6882 H       1  UNL1        0.1476
     16 H          -0.8008    0.6255    2.2553 H       1  UNL1        0.1626
     17 C          -1.9490   -2.7915    0.0191 C.3     1  UNL1       -0.3565
     18 H          -1.4196   -3.4060   -0.7135 H       1  UNL1        0.1497
     19 H          -1.9498   -3.3387    0.9628 H       1  UNL1        0.1498
     20 H          -2.9738   -2.6583   -0.3159 H       1  UNL1        0.1358
     21 C           1.3180   -1.1082    0.1111 C.ar    1  UNL1        0.1286
     22 C           2.4933   -0.8876    0.8267 C.ar    1  UNL1       -0.2415
     23 C           3.6307   -0.4437    0.1770 C.ar    1  UNL1       -0.1143
     24 C           3.6079   -0.2352   -1.1969 C.ar    1  UNL1       -0.1272
     25 C           2.4449   -0.4661   -1.9170 C.ar    1  UNL1       -0.1385
     26 C           1.2997   -0.8932   -1.2642 C.ar    1  UNL1       -0.2168
     27 H           2.4988   -1.0566    1.8955 H       1  UNL1        0.1478
     28 H           4.5371   -0.2588    0.7388 H       1  UNL1        0.1490
     29 H           4.4992    0.1090   -1.7059 H       1  UNL1        0.1512
     30 H           2.4278   -0.3083   -2.9874 H       1  UNL1        0.1486
     31 H           0.3910   -1.0632   -1.8267 H       1  UNL1        0.1718
@<TRIPOS>BOND
     1    30    25    1
     2    25    26   ar
     3    25    24   ar
     4    12     7    1
     5    31    26    1
     6    29    24    1
     7    13     8    1
     8    26    21   ar
     9    24    23   ar
    10     7     8   ar
    11     7     6   ar
    12     5     4    1
    13    18    17    1
    14     8     9   ar
    15    20    17    1
    16     4     6    1
    17     4     1    2
    18    17     1    1
    19    17    19    1
    20    21    22   ar
    21    21     2    1
    22     6    11   ar
    23    23    28    1
    24    23    22   ar
    25     1     2    1
    26     9    14    1
    27     9    10   ar
    28    22    27    1
    29     2     3    2
    30    11    10   ar
    31    11    16    1
    32    10    15    1
