@<TRIPOS>MOLECULE
GS-888-0.out
 31 32 0 0 0
SMALL
MULLIKEN_CHARGES
****
Gaussian 16 # wB97XD def2tzvp, opt=(calcfc, maxcycles=70, maxstep=10), freq=norama
@<TRIPOS>ATOM
      1 C          -0.6582   -0.7317    0.3374 C.2     1  UNL1       -0.0267
      2 C           0.6918   -0.8065    1.0121 C.2     1  UNL1        0.2648
      3 O           0.7915   -1.2403    2.1396 O.2     1  UNL1       -0.3726
      4 C          -1.2505   -1.8550   -0.0569 C.2     1  UNL1        0.0966
      5 CL         -2.8655   -1.8172   -0.7296 Cl      1  UNL1       -0.0991
      6 C          -0.6855   -3.2348    0.0028 C.3     1  UNL1       -0.3741
      7 H           0.3301   -3.2320    0.3929 H       1  UNL1        0.1464
      8 H          -1.3027   -3.8696    0.6407 H       1  UNL1        0.1531
      9 H          -0.6764   -3.6763   -0.9949 H       1  UNL1        0.1508
     10 C          -1.1983    0.6470    0.2251 C.ar    1  UNL1        0.1678
     11 C          -1.2808    1.4435    1.3654 C.ar    1  UNL1       -0.2372
     12 C          -1.7515    2.7453    1.2828 C.ar    1  UNL1       -0.1418
     13 C          -2.1327    3.2704    0.0572 C.ar    1  UNL1       -0.1426
     14 C          -2.0401    2.4878   -1.0858 C.ar    1  UNL1       -0.1219
     15 C          -1.5743    1.1859   -1.0036 C.ar    1  UNL1       -0.2850
     16 H          -0.9823    1.0394    2.3252 H       1  UNL1        0.1517
     17 H          -1.8179    3.3497    2.1783 H       1  UNL1        0.1461
     18 H          -2.4963    4.2878   -0.0091 H       1  UNL1        0.1474
     19 H          -2.3279    2.8941   -2.0471 H       1  UNL1        0.1459
     20 H          -1.4971    0.5839   -1.8997 H       1  UNL1        0.1688
     21 C           1.8667   -0.2814    0.2665 C.ar    1  UNL1        0.0861
     22 C           1.8200   -0.0901   -1.1121 C.ar    1  UNL1       -0.1665
     23 C           2.9372    0.3722   -1.7888 C.ar    1  UNL1       -0.1643
     24 C           4.1010    0.6565   -1.0893 C.ar    1  UNL1       -0.1173
     25 C           4.1527    0.4711    0.2873 C.ar    1  UNL1       -0.1242
     26 C           3.0420   -0.0013    0.9622 C.ar    1  UNL1       -0.2226
     27 H           0.9142   -0.3153   -1.6597 H       1  UNL1        0.1711
     28 H           2.8992    0.5117   -2.8612 H       1  UNL1        0.1486
     29 H           4.9719    1.0239   -1.6172 H       1  UNL1        0.1524
     30 H           5.0611    0.6958    0.8309 H       1  UNL1        0.1503
     31 H           3.0691   -0.1534    2.0332 H       1  UNL1        0.1481
@<TRIPOS>BOND
     1    28    23    1
     2    19    14    1
     3    20    15    1
     4    23    22   ar
     5    23    24   ar
     6    27    22    1
     7    29    24    1
     8    22    21   ar
     9    24    25   ar
    10    14    15   ar
    11    14    13   ar
    12    15    10   ar
    13     9     6    1
    14     5     4    1
    15     4     6    1
    16     4     1    2
    17    18    13    1
    18     6     7    1
    19     6     8    1
    20    13    12   ar
    21    10     1    1
    22    10    11   ar
    23    21    26   ar
    24    21     2    1
    25    25    30    1
    26    25    26   ar
    27     1     2    1
    28    26    31    1
    29     2     3    2
    30    12    11   ar
    31    12    17    1
    32    11    16    1
