@<TRIPOS>MOLECULE
GS-883-0.out
 23 23 0 0 0
SMALL
MULLIKEN_CHARGES
****
Gaussian 16 # wB97XD def2tzvp, opt=(calcfc, maxcycles=70, maxstep=10), freq=norama
@<TRIPOS>ATOM
      1 C          -0.7579    0.2835    0.0001 C.2     1  UNL1       -0.0794
      2 C          -1.2749    1.6999   -0.0372 C.2     1  UNL1        0.3186
      3 O          -2.3490    2.0417    0.4376 O.2     1  UNL1       -0.4726
      4 C          -1.6041   -0.7497    0.0007 C.2     1  UNL1        0.0926
      5 CL         -0.9503   -2.3708    0.1100 Cl      1  UNL1       -0.0992
      6 C          -3.0913   -0.7545   -0.0917 C.3     1  UNL1       -0.3579
      7 H          -3.4736    0.2433   -0.2769 H       1  UNL1        0.1483
      8 H          -3.4030   -1.4311   -0.8886 H       1  UNL1        0.1440
      9 H          -3.5190   -1.1265    0.8416 H       1  UNL1        0.1505
     10 C           0.7224    0.1146    0.0235 C.ar    1  UNL1        0.0747
     11 C           1.4134   -0.2530   -1.1278 C.ar    1  UNL1       -0.2035
     12 C           2.7949   -0.3761   -1.1083 C.ar    1  UNL1       -0.1325
     13 C           3.4984   -0.1337    0.0625 C.ar    1  UNL1       -0.1257
     14 C           2.8161    0.2361    1.2131 C.ar    1  UNL1       -0.1508
     15 C           1.4360    0.3650    1.1924 C.ar    1  UNL1       -0.1792
     16 H           0.8632   -0.4455   -2.0408 H       1  UNL1        0.1506
     17 H           3.3213   -0.6630   -2.0097 H       1  UNL1        0.1467
     18 H           4.5765   -0.2310    0.0782 H       1  UNL1        0.1484
     19 H           3.3598    0.4271    2.1295 H       1  UNL1        0.1460
     20 H           0.9054    0.6584    2.0902 H       1  UNL1        0.1463
     21 N          -0.4468    2.5830   -0.6273 N.am    1  UNL1       -0.4358
     22 H          -0.7186    3.5497   -0.6669 H       1  UNL1        0.2787
     23 H           0.4456    2.3140   -1.0004 H       1  UNL1        0.2914
@<TRIPOS>BOND
     1    16    11    1
     2    17    12    1
     3    11    12   ar
     4    11    10   ar
     5    12    13   ar
     6    23    21    1
     7     8     6    1
     8    22    21    1
     9    21     2   am
    10     7     6    1
    11     6     4    1
    12     6     9    1
    13     2     1    1
    14     2     3    2
    15     1     4    2
    16     1    10    1
    17     4     5    1
    18    10    15   ar
    19    13    18    1
    20    13    14   ar
    21    15    14   ar
    22    15    20    1
    23    14    19    1
