@<TRIPOS>MOLECULE
GS-814-0.out
 26 26 0 0 0
SMALL
MULLIKEN_CHARGES
****
Gaussian 16 # wB97XD def2tzvp, opt=(calcfc, maxcycles=70, maxstep=10), freq=norama
@<TRIPOS>ATOM
      1 C          -0.9259    1.5811   -0.1214 C.2     1  UNL1       -0.2372
      2 C          -1.9797    0.5389   -0.3335 C.2     1  UNL1        0.2746
      3 O          -2.6801    0.6428   -1.3385 O.2     1  UNL1       -0.4905
      4 C           0.3828    1.3583   -0.1064 C.2     1  UNL1        0.0418
      5 CL          1.4560    2.7345    0.0359 Cl      1  UNL1       -0.1066
      6 C           1.0528    0.0455   -0.1962 C.ar    1  UNL1        0.2049
      7 C           2.0694   -0.2996    0.6927 C.ar    1  UNL1       -0.2245
      8 C           2.6400   -1.5600    0.6462 C.ar    1  UNL1       -0.1312
      9 C           2.2112   -2.4859   -0.2953 C.ar    1  UNL1       -0.1371
     10 C           1.2136   -2.1423   -1.1953 C.ar    1  UNL1       -0.1393
     11 C           0.6385   -0.8822   -1.1495 C.ar    1  UNL1       -0.2110
     12 H           2.4039    0.4168    1.4321 H       1  UNL1        0.1508
     13 H           3.4205   -1.8213    1.3489 H       1  UNL1        0.1482
     14 H           2.6594   -3.4705   -0.3314 H       1  UNL1        0.1493
     15 H           0.8846   -2.8540   -1.9415 H       1  UNL1        0.1486
     16 H          -0.1305   -0.6147   -1.8627 H       1  UNL1        0.1595
     17 H          -1.3015    2.5962   -0.1074 H       1  UNL1        0.1711
     18 N          -2.1300   -0.4440    0.5724 N.am    1  UNL1       -0.0908
     19 C          -3.0547   -1.5289    0.3102 C.3     1  UNL1       -0.2768
     20 C          -1.3906   -0.5552    1.8137 C.3     1  UNL1       -0.3184
     21 H          -3.4758   -1.4153   -0.6831 H       1  UNL1        0.1505
     22 H          -2.5238   -2.4815    0.3746 H       1  UNL1        0.1391
     23 H          -3.8604   -1.5287    1.0474 H       1  UNL1        0.1466
     24 H          -0.9041    0.3830    2.0607 H       1  UNL1        0.1672
     25 H          -2.0850   -0.8074    2.6164 H       1  UNL1        0.1552
     26 H          -0.6347   -1.3419    1.7451 H       1  UNL1        0.1561
@<TRIPOS>BOND
     1    15    10    1
     2    16    11    1
     3     3     2    2
     4    10    11   ar
     5    10     9   ar
     6    11     6   ar
     7    21    19    1
     8     2     1    1
     9     2    18   am
    10    14     9    1
    11     9     8   ar
    12     6     4    1
    13     6     7   ar
    14     1    17    1
    15     1     4    2
    16     4     5    1
    17    19    22    1
    18    19    18    1
    19    19    23    1
    20    18    20    1
    21     8     7   ar
    22     8    13    1
    23     7    12    1
    24    26    20    1
    25    20    24    1
    26    20    25    1
