@<TRIPOS>MOLECULE
GS-856-0.out
 18 18 0 0 0
SMALL
MULLIKEN_CHARGES
****
Gaussian 16 # wb97xd def2tzvp opt=(calcfc, maxcycles=100, maxstep=10) freq=noraman
@<TRIPOS>ATOM
      1 C           1.4078   -0.0996   -0.1345 C.2     1  UNL1       -0.2796
      2 C           0.2508    0.8085    0.0777 C.2     1  UNL1        0.3344
      3 O           0.4125    1.9973    0.2807 O.2     1  UNL1       -0.4118
      4 C           2.6342    0.3381    0.1124 C.2     1  UNL1       -0.0022
      5 CL          4.0380   -0.6237   -0.1168 Cl      1  UNL1       -0.0633
      6 H           2.8386    1.3348    0.4785 H       1  UNL1        0.1870
      7 H           1.2449   -1.1039   -0.4984 H       1  UNL1        0.1727
      8 C          -1.1216    0.2253    0.0207 C.ar    1  UNL1        0.1223
      9 C          -2.1976    1.0873   -0.1908 C.ar    1  UNL1       -0.2034
     10 C          -3.4899    0.5969   -0.2336 C.ar    1  UNL1       -0.1208
     11 C          -3.7232   -0.7604   -0.0488 C.ar    1  UNL1       -0.1284
     12 C          -2.6608   -1.6234    0.1738 C.ar    1  UNL1       -0.1419
     13 C          -1.3635   -1.1353    0.2003 C.ar    1  UNL1       -0.2206
     14 H          -2.0047    2.1431   -0.3267 H       1  UNL1        0.1499
     15 H          -4.3181    1.2709   -0.4098 H       1  UNL1        0.1499
     16 H          -4.7350   -1.1445   -0.0779 H       1  UNL1        0.1521
     17 H          -2.8408   -2.6794    0.3264 H       1  UNL1        0.1505
     18 H          -0.5492   -1.8226    0.3863 H       1  UNL1        0.1532
@<TRIPOS>BOND
     1     7     1    1
     2    15    10    1
     3    14     9    1
     4    10     9   ar
     5    10    11   ar
     6     9     8   ar
     7     1     2    1
     8     1     4    2
     9     5     4    1
    10    16    11    1
    11    11    12   ar
    12     8     2    1
    13     8    13   ar
    14     2     3    2
    15     4     6    1
    16    12    13   ar
    17    12    17    1
    18    13    18    1
