@<TRIPOS>MOLECULE
GS-816-0.out
 28 29 0 0 0
SMALL
MULLIKEN_CHARGES
****
Gaussian 16 # wB97XD def2tzvp, opt=(calcfc, maxcycles=70, maxstep=10), freq=norama
@<TRIPOS>ATOM
      1 C           0.9775   -1.9291    0.0190 C.2     1  UNL1       -0.2551
      2 C          -0.4417   -1.9985    0.4650 C.2     1  UNL1        0.2846
      3 O          -0.7553   -2.8747    1.2477 O.2     1  UNL1       -0.3892
      4 C           1.7213   -0.8296   -0.0879 C.2     1  UNL1        0.0664
      5 CL          3.3758   -1.0083   -0.6219 Cl      1  UNL1       -0.0924
      6 C           1.3202    0.5528    0.2320 C.ar    1  UNL1        0.2214
      7 C           0.6794    0.8249    1.4376 C.ar    1  UNL1       -0.2335
      8 C           0.2390    2.1082    1.7204 C.ar    1  UNL1       -0.1386
      9 C           0.4392    3.1289    0.8039 C.ar    1  UNL1       -0.1280
     10 C           1.0947    2.8664   -0.3924 C.ar    1  UNL1       -0.1411
     11 C           1.5419    1.5878   -0.6743 C.ar    1  UNL1       -0.2177
     12 H           0.5303    0.0315    2.1588 H       1  UNL1        0.1693
     13 H          -0.2586    2.3091    2.6602 H       1  UNL1        0.1493
     14 H           0.0921    4.1305    1.0230 H       1  UNL1        0.1502
     15 H           1.2558    3.6612   -1.1090 H       1  UNL1        0.1485
     16 H           2.0468    1.3855   -1.6103 H       1  UNL1        0.1539
     17 H           1.4339   -2.8969   -0.1476 H       1  UNL1        0.1718
     18 C          -1.4599   -1.0528   -0.0737 C.ar    1  UNL1        0.1303
     19 C          -2.6023   -0.8021    0.6828 C.ar    1  UNL1       -0.2088
     20 C          -3.5728    0.0644    0.2123 C.ar    1  UNL1       -0.1320
     21 C          -3.4180    0.6711   -1.0280 C.ar    1  UNL1       -0.1198
     22 C          -2.2913    0.4100   -1.7945 C.ar    1  UNL1       -0.1521
     23 C          -1.3109   -0.4443   -1.3165 C.ar    1  UNL1       -0.2043
     24 H          -2.7117   -1.2809    1.6471 H       1  UNL1        0.1476
     25 H          -4.4506    0.2698    0.8112 H       1  UNL1        0.1482
     26 H          -4.1779    1.3480   -1.3974 H       1  UNL1        0.1508
     27 H          -2.1738    0.8750   -2.7645 H       1  UNL1        0.1480
     28 H          -0.4317   -0.6429   -1.9152 H       1  UNL1        0.1723
@<TRIPOS>BOND
     1    27    22    1
     2    28    23    1
     3    22    23   ar
     4    22    21   ar
     5    16    11    1
     6    26    21    1
     7    23    18   ar
     8    15    10    1
     9    21    20   ar
    10    11    10   ar
    11    11     6   ar
    12     5     4    1
    13    10     9   ar
    14    17     1    1
    15     4     1    2
    16     4     6    1
    17    18     2    1
    18    18    19   ar
    19     1     2    1
    20    20    19   ar
    21    20    25    1
    22     6     7   ar
    23     2     3    2
    24    19    24    1
    25     9    14    1
    26     9     8   ar
    27     7     8   ar
    28     7    12    1
    29     8    13    1
