@<TRIPOS>MOLECULE
GS-893-0.out
 16 15 0 0 0
SMALL
MULLIKEN_CHARGES
****
Gaussian 16 # wB97XD def2tzvp, opt=(calcfc, maxcycles=70, maxstep=10), freq=norama
@<TRIPOS>ATOM
      1 C           0.1389   -0.4927    0.0000 C.2     1  UNL1       -0.3348
      2 C          -1.2158    0.1233    0.0000 C.2     1  UNL1        0.4368
      3 O          -1.4429    1.3292    0.0001 O.2     1  UNL1       -0.5131
      4 C           1.2914    0.1714   -0.0000 C.2     1  UNL1        0.1404
      5 CL          2.7623   -0.7818    0.0000 Cl      1  UNL1       -0.1130
      6 C           1.5447    1.6363   -0.0001 C.3     1  UNL1       -0.3496
      7 H           0.6028    2.1762   -0.0002 H       1  UNL1        0.1555
      8 H           2.1295    1.9098    0.8802 H       1  UNL1        0.1464
      9 H           2.1298    1.9097   -0.8801 H       1  UNL1        0.1464
     10 H           0.1733   -1.5749    0.0000 H       1  UNL1        0.1553
     11 N          -2.2138   -0.7813   -0.0000 N.am    1  UNL1       -0.3131
     12 C          -3.6031   -0.3840   -0.0000 C.3     1  UNL1       -0.2502
     13 H          -1.9924   -1.7605   -0.0001 H       1  UNL1        0.2724
     14 H          -4.2206   -1.2786    0.0000 H       1  UNL1        0.1479
     15 H          -3.8388    0.2101    0.8843 H       1  UNL1        0.1363
     16 H          -3.8389    0.2100   -0.8844 H       1  UNL1        0.1363
@<TRIPOS>BOND
     1    16    12    1
     2     9     6    1
     3     7     6    1
     4    13    11    1
     5     6     4    1
     6     6     8    1
     7    12    11    1
     8    12    14    1
     9    12    15    1
    10     4     1    2
    11     4     5    1
    12    11     2   am
    13     1     2    1
    14     1    10    1
    15     2     3    2
