@<TRIPOS>MOLECULE
GS-846-0.out
 26 26 0 0 0
SMALL
MULLIKEN_CHARGES
****
Gaussian 16 # wB97XD def2tzvp, opt=(calcfc, maxcycles=70, maxstep=10), freq=norama
@<TRIPOS>ATOM
      1 C           0.3214    0.7586   -0.1988 C.2     1  UNL1       -0.0714
      2 C           1.7207    0.2419   -0.4650 C.2     1  UNL1        0.2484
      3 O           2.2899    0.5332   -1.5118 O.2     1  UNL1       -0.4819
      4 C           0.2017    2.0769   -0.1073 C.2     1  UNL1       -0.0828
      5 CL         -1.2860    2.9416    0.0515 Cl      1  UNL1       -0.0829
      6 H           1.0586    2.7331   -0.1576 H       1  UNL1        0.1848
      7 C          -0.7642   -0.2478   -0.1645 C.ar    1  UNL1        0.1543
      8 C          -1.7646   -0.2231    0.8052 C.ar    1  UNL1       -0.2341
      9 C          -2.7528   -1.1943    0.8196 C.ar    1  UNL1       -0.1402
     10 C          -2.7550   -2.2038   -0.1322 C.ar    1  UNL1       -0.1274
     11 C          -1.7563   -2.2434   -1.0945 C.ar    1  UNL1       -0.1626
     12 C          -0.7641   -1.2764   -1.1060 C.ar    1  UNL1       -0.2022
     13 H          -1.7607    0.5486    1.5634 H       1  UNL1        0.1658
     14 H          -3.5206   -1.1650    1.5822 H       1  UNL1        0.1459
     15 H          -3.5280   -2.9616   -0.1193 H       1  UNL1        0.1480
     16 H          -1.7468   -3.0307   -1.8373 H       1  UNL1        0.1465
     17 H           0.0149   -1.3152   -1.8583 H       1  UNL1        0.1515
     18 N           2.2569   -0.5645    0.4686 N.am    1  UNL1       -0.0820
     19 C           3.5193   -1.2298    0.2147 C.3     1  UNL1       -0.2855
     20 C           1.6561   -0.8303    1.7613 C.3     1  UNL1       -0.2980
     21 H           3.7817   -1.1219   -0.8329 H       1  UNL1        0.1493
     22 H           4.3123   -0.7987    0.8303 H       1  UNL1        0.1464
     23 H           3.4248   -2.2891    0.4603 H       1  UNL1        0.1428
     24 H           0.9167   -0.0747    2.0098 H       1  UNL1        0.1630
     25 H           1.1825   -1.8150    1.7804 H       1  UNL1        0.1496
     26 H           2.4358   -0.8028    2.5234 H       1  UNL1        0.1547
@<TRIPOS>BOND
     1    17    12    1
     2    16    11    1
     3     3     2    2
     4    12    11   ar
     5    12     7   ar
     6    11    10   ar
     7    21    19    1
     8     2     1    1
     9     2    18   am
    10     1     7    1
    11     1     4    2
    12     7     8   ar
    13     6     4    1
    14    10    15    1
    15    10     9   ar
    16     4     5    1
    17    19    23    1
    18    19    18    1
    19    19    22    1
    20    18    20    1
    21     8     9   ar
    22     8    13    1
    23     9    14    1
    24    20    25    1
    25    20    24    1
    26    20    26    1
