@<TRIPOS>MOLECULE
GS-874-0.out
 11 10 0 0 0
SMALL
MULLIKEN_CHARGES
****
Gaussian 16 # wB97XD def2tzvp, opt=(calcfc, maxcycles=70, maxstep=10), freq=norama
@<TRIPOS>ATOM
      1 C           0.1630   -0.0416    0.0000 C.2     1  UNL1       -0.0589
      2 C           1.5510   -0.6262   -0.0000 C.2     1  UNL1        0.2857
      3 O           1.6845   -1.8286   -0.0000 O.2     1  UNL1       -0.3836
      4 C          -0.8847   -0.8605    0.0000 C.2     1  UNL1       -0.0387
      5 CL         -2.5154   -0.3685    0.0000 Cl      1  UNL1       -0.0360
      6 H          -0.7267   -1.9291   -0.0000 H       1  UNL1        0.1992
      7 CL         -0.0169    1.6747   -0.0000 Cl      1  UNL1       -0.0653
      8 C           2.7193    0.3115    0.0000 C.3     1  UNL1       -0.3730
      9 H           2.6845    0.9597    0.8774 H       1  UNL1        0.1628
     10 H           3.6394   -0.2664    0.0000 H       1  UNL1        0.1449
     11 H           2.6845    0.9597   -0.8774 H       1  UNL1        0.1628
@<TRIPOS>BOND
     1    11     8    1
     2     1     2    1
     3     1     4    2
     4     1     7    1
     5     2     3    2
     6     2     8    1
     7     4     5    1
     8     4     6    1
     9     8    10    1
    10     8     9    1
