@<TRIPOS>MOLECULE
GS-872-0.out
 18 18 0 0 0
SMALL
MULLIKEN_CHARGES
****
Gaussian 16 # wB97XD def2tzvp, opt=(calcfc, maxcycles=70, maxstep=10), freq=norama
@<TRIPOS>ATOM
      1 C           1.0054    0.4913   -0.0940 C.2     1  UNL1       -0.0923
      2 C          -0.2919    1.2044   -0.3740 C.2     1  UNL1        0.2902
      3 O          -0.2594    2.3090   -0.8674 O.2     1  UNL1       -0.3583
      4 C           1.9818    1.1493    0.5158 C.2     1  UNL1       -0.0630
      5 CL          3.5208    0.5128    0.8990 Cl      1  UNL1       -0.0457
      6 H           1.8357    2.1760    0.8219 H       1  UNL1        0.2027
      7 BR          1.1717   -1.2862   -0.6907 Br      1  UNL1       -0.0163
      8 C          -1.5718    0.5430   -0.0113 C.ar    1  UNL1        0.1095
      9 C          -2.7250    0.8891   -0.7123 C.ar    1  UNL1       -0.2024
     10 C          -3.9411    0.3273   -0.3666 C.ar    1  UNL1       -0.1277
     11 C          -4.0151   -0.5657    0.6949 C.ar    1  UNL1       -0.1244
     12 C          -2.8718   -0.9014    1.4064 C.ar    1  UNL1       -0.1447
     13 C          -1.6496   -0.3571    1.0486 C.ar    1  UNL1       -0.2163
     14 H          -2.6558    1.5934   -1.5310 H       1  UNL1        0.1523
     15 H          -4.8332    0.5865   -0.9215 H       1  UNL1        0.1516
     16 H          -4.9679   -1.0005    0.9690 H       1  UNL1        0.1535
     17 H          -2.9319   -1.5895    2.2393 H       1  UNL1        0.1521
     18 H          -0.7605   -0.6195    1.6079 H       1  UNL1        0.1793
@<TRIPOS>BOND
     1    14     9    1
     2    15    10    1
     3     3     2    2
     4     9    10   ar
     5     9     8   ar
     6     7     1    1
     7     2     1    1
     8     2     8    1
     9    10    11   ar
    10     1     4    2
    11     8    13   ar
    12     4     6    1
    13     4     5    1
    14    11    16    1
    15    11    12   ar
    16    13    12   ar
    17    13    18    1
    18    12    17    1
