@<TRIPOS>MOLECULE
GS-899-0.out
 16 15 0 0 0
SMALL
MULLIKEN_CHARGES
****
Gaussian 16 # wB97XD def2tzvp, opt=(calcfc, maxcycles=70, maxstep=10), freq=norama
@<TRIPOS>ATOM
      1 C          -0.2538    0.4850    0.0439 C.2     1  UNL1       -0.0702
      2 C          -1.6776    0.0029   -0.0848 C.2     1  UNL1        0.2882
      3 O          -2.3667    0.3302   -1.0390 O.2     1  UNL1       -0.4587
      4 C           0.7465   -0.3830   -0.0643 C.2     1  UNL1        0.0605
      5 CL          2.4095    0.1766    0.0355 Cl      1  UNL1       -0.1276
      6 C           0.6640   -1.8555   -0.3032 C.3     1  UNL1       -0.3641
      7 H          -0.3671   -2.1812   -0.4230 H       1  UNL1        0.1430
      8 H           1.2186   -2.1179   -1.2054 H       1  UNL1        0.1476
      9 H           1.1086   -2.4035    0.5295 H       1  UNL1        0.1497
     10 C          -0.1438    1.9684    0.2216 C.3     1  UNL1       -0.3268
     11 H          -0.6499    2.2785    1.1390 H       1  UNL1        0.1423
     12 H           0.8909    2.2963    0.2677 H       1  UNL1        0.1313
     13 H          -0.6384    2.4745   -0.6094 H       1  UNL1        0.1438
     14 N          -2.1371   -0.7484    0.9292 N.am    1  UNL1       -0.4407
     15 H          -1.5558   -0.9811    1.7138 H       1  UNL1        0.2996
     16 H          -3.0874   -1.0781    0.9130 H       1  UNL1        0.2823
@<TRIPOS>BOND
     1     8     6    1
     2     3     2    2
     3    13    10    1
     4     7     6    1
     5     6     4    1
     6     6     9    1
     7     2     1    1
     8     2    14   am
     9     4     5    1
    10     4     1    2
    11     1    10    1
    12    10    12    1
    13    10    11    1
    14    16    14    1
    15    14    15    1
