@<TRIPOS>MOLECULE
GS-823-3.out
 33 34 0 0 0
SMALL
MULLIKEN_CHARGES
****
Gaussian 16 # wB97XD def2tzvp, opt=(calcfc, maxcycles=70, maxstep=8), freq=noraman
@<TRIPOS>ATOM
      1 C          -1.6054   -1.5887   -0.0315 C.2     1  UNL1       -0.0199
      2 C          -0.1218   -1.6691    0.2348 C.2     1  UNL1        0.3166
      3 O           0.3105   -2.3627    1.1375 O.2     1  UNL1       -0.4510
      4 C          -2.2047   -0.3976   -0.0581 C.2     1  UNL1        0.0626
      5 CL         -3.9249   -0.2775   -0.3679 Cl      1  UNL1       -0.1006
      6 C          -1.5525    0.9125    0.1771 C.ar    1  UNL1        0.0666
      7 C          -1.6108    1.9180   -0.7859 C.ar    1  UNL1       -0.2020
      8 C          -0.9440    3.1157   -0.5857 C.ar    1  UNL1       -0.1333
      9 C          -0.2242    3.3268    0.5823 C.ar    1  UNL1       -0.1457
     10 C          -0.1771    2.3365    1.5518 C.ar    1  UNL1       -0.1225
     11 C          -0.8401    1.1355    1.3525 C.ar    1  UNL1       -0.1996
     12 H          -2.1682    1.7553   -1.6999 H       1  UNL1        0.1526
     13 H          -0.9844    3.8851   -1.3458 H       1  UNL1        0.1474
     14 H           0.2965    4.2631    0.7367 H       1  UNL1        0.1486
     15 H           0.3760    2.4974    2.4681 H       1  UNL1        0.1478
     16 H          -0.8020    0.3629    2.1102 H       1  UNL1        0.1584
     17 C          -2.2712   -2.9202   -0.1772 C.3     1  UNL1       -0.3631
     18 H          -1.9112   -3.4253   -1.0767 H       1  UNL1        0.1476
     19 H          -2.0109   -3.5494    0.6749 H       1  UNL1        0.1481
     20 H          -3.3521   -2.8312   -0.2367 H       1  UNL1        0.1354
     21 N           0.6525   -0.9510   -0.6185 N.am    1  UNL1       -0.2537
     22 C           2.0125   -0.6224   -0.4452 C.ar    1  UNL1        0.3142
     23 C           2.4183    0.6570   -0.8163 C.ar    1  UNL1       -0.2858
     24 C           3.7447    1.0301   -0.6835 C.ar    1  UNL1       -0.1166
     25 C           4.6741    0.1355   -0.1707 C.ar    1  UNL1       -0.1724
     26 C           4.2648   -1.1369    0.1994 C.ar    1  UNL1       -0.0917
     27 C           2.9403   -1.5261    0.0605 C.ar    1  UNL1       -0.3138
     28 H           0.1541   -0.3766   -1.2785 H       1  UNL1        0.2730
     29 H           1.6863    1.3614   -1.1953 H       1  UNL1        0.1667
     30 H           4.0498    2.0273   -0.9740 H       1  UNL1        0.1450
     31 H           5.7102    0.4284   -0.0617 H       1  UNL1        0.1444
     32 H           4.9837   -1.8431    0.5954 H       1  UNL1        0.1460
     33 H           2.6276   -2.5200    0.3411 H       1  UNL1        0.1506
@<TRIPOS>BOND
     1    12     7    1
     2    13     8    1
     3    28    21    1
     4    29    23    1
     5    18    17    1
     6    30    24    1
     7    23    24   ar
     8    23    22   ar
     9     7     8   ar
    10     7     6   ar
    11    24    25   ar
    12    21    22    1
    13    21     2   am
    14     8     9   ar
    15    22    27   ar
    16     5     4    1
    17    20    17    1
    18    17     1    1
    19    17    19    1
    20    25    31    1
    21    25    26   ar
    22     4     1    2
    23     4     6    1
    24     1     2    1
    25    27    26   ar
    26    27    33    1
    27     6    11   ar
    28    26    32    1
    29     2     3    2
    30     9    14    1
    31     9    10   ar
    32    11    10   ar
    33    11    16    1
    34    10    15    1
