@<TRIPOS>MOLECULE
GS-88-1.out
 41 43 0 0 0
SMALL
MULLIKEN_CHARGES
****
Gaussian 16 # wB97XD def2tzvp, opt=(maxcycles=70, maxstep=1), freq=noraman, scrf=(
@<TRIPOS>ATOM
      1 C           0.0511   -0.3756   -0.6450 C.2     1  UNL1        0.0681
      2 C           1.4313   -0.6654   -1.1716 C.2     1  UNL1        0.1819
      3 O           1.6059   -0.9326   -2.3431 O.2     1  UNL1       -0.3805
      4 C          -0.8512   -1.3532   -0.5056 C.2     1  UNL1        0.1273
      5 C          -2.2563   -1.0704   -0.1055 C.ar    1  UNL1        0.0966
      6 C          -3.0484   -0.2185   -0.8720 C.ar    1  UNL1       -0.2140
      7 C          -4.3605    0.0430   -0.5106 C.ar    1  UNL1       -0.1587
      8 C          -4.8996   -0.5413    0.6269 C.ar    1  UNL1       -0.1306
      9 C          -4.1210   -1.3969    1.3934 C.ar    1  UNL1       -0.1524
     10 C          -2.8120   -1.6667    1.0240 C.ar    1  UNL1       -0.2531
     11 H          -2.6273    0.2442   -1.7560 H       1  UNL1        0.1540
     12 H          -4.9632    0.7059   -1.1186 H       1  UNL1        0.1418
     13 H          -5.9229   -0.3336    0.9130 H       1  UNL1        0.1449
     14 H          -4.5335   -1.8561    2.2829 H       1  UNL1        0.1427
     15 H          -2.2113   -2.3305    1.6340 H       1  UNL1        0.1505
     16 C          -0.5380   -2.8018   -0.7530 C.3     1  UNL1       -0.3499
     17 H          -0.7953   -3.3965    0.1261 H       1  UNL1        0.1406
     18 H          -1.1447   -3.1806   -1.5789 H       1  UNL1        0.1445
     19 H           0.5102   -2.9766   -0.9861 H       1  UNL1        0.1383
     20 C          -0.1710    1.0575   -0.3156 C.ar    1  UNL1        0.1359
     21 C          -0.6989    1.4478    0.9146 C.ar    1  UNL1       -0.2666
     22 C          -0.8821    2.7879    1.2115 C.ar    1  UNL1       -0.1407
     23 C          -0.5337    3.7628    0.2859 C.ar    1  UNL1       -0.1330
     24 C           0.0055    3.3870   -0.9351 C.ar    1  UNL1       -0.1592
     25 C           0.1909    2.0444   -1.2305 C.ar    1  UNL1       -0.2276
     26 H          -0.9679    0.6931    1.6425 H       1  UNL1        0.1695
     27 H          -1.2941    3.0730    2.1713 H       1  UNL1        0.1420
     28 H          -0.6770    4.8103    0.5188 H       1  UNL1        0.1451
     29 H           0.2834    4.1397   -1.6618 H       1  UNL1        0.1426
     30 H           0.6093    1.7600   -2.1888 H       1  UNL1        0.1493
     31 C           2.5738   -0.5693   -0.2198 C.ar    1  UNL1        0.0862
     32 C           3.8731   -0.4977   -0.7193 C.ar    1  UNL1       -0.2295
     33 C           4.9488   -0.4264    0.1472 C.ar    1  UNL1       -0.1241
     34 C           4.7351   -0.4367    1.5207 C.ar    1  UNL1       -0.1214
     35 C           3.4450   -0.5152    2.0250 C.ar    1  UNL1       -0.1611
     36 C           2.3662   -0.5756    1.1573 C.ar    1  UNL1       -0.1674
     37 H           4.0253   -0.4941   -1.7907 H       1  UNL1        0.1462
     38 H           5.9559   -0.3628   -0.2442 H       1  UNL1        0.1492
     39 H           5.5777   -0.3833    2.1984 H       1  UNL1        0.1512
     40 H           3.2791   -0.5280    3.0943 H       1  UNL1        0.1474
     41 H           1.3601   -0.6397    1.5512 H       1  UNL1        0.1743
@<TRIPOS>BOND
     1     3     2    2
     2    30    25    1
     3    37    32    1
     4    11     6    1
     5    29    24    1
     6    18    16    1
     7    25    24   ar
     8    25    20   ar
     9     2     1    1
    10     2    31    1
    11    12     7    1
    12    19    16    1
    13    24    23   ar
    14     6     7   ar
    15     6     5   ar
    16    16     4    1
    17    16    17    1
    18    32    31   ar
    19    32    33   ar
    20     1     4    2
    21     1    20    1
    22     7     8   ar
    23     4     5    1
    24    20    21   ar
    25    38    33    1
    26    31    36   ar
    27     5    10   ar
    28    33    34   ar
    29    23    28    1
    30    23    22   ar
    31     8    13    1
    32     8     9   ar
    33    21    22   ar
    34    21    26    1
    35    10     9   ar
    36    10    15    1
    37    36    41    1
    38    36    35   ar
    39    22    27    1
    40     9    14    1
    41    34    35   ar
    42    34    39    1
    43    35    40    1
