@<TRIPOS>MOLECULE
GS-849-0.out
 8 7 0 0 0
SMALL
MULLIKEN_CHARGES
****
Gaussian 16 # wB97XD def2tzvp, opt=(calcfc, maxcycles=70, maxstep=10), freq=norama
@<TRIPOS>ATOM
      1 C           0.5422   -0.3007   -0.0000 C.2     1  UNL1       -0.1677
      2 C           1.8670    0.3226   -0.0000 C.2     1  UNL1        0.1603
      3 O           2.9024   -0.3024    0.0000 O.2     1  UNL1       -0.3771
      4 C          -0.5345    0.4767   -0.0000 C.2     1  UNL1       -0.0360
      5 CL         -2.1378   -0.1280    0.0000 Cl      1  UNL1       -0.0533
      6 H          -0.4802    1.5580    0.0000 H       1  UNL1        0.1957
      7 H           0.4810   -1.3817   -0.0000 H       1  UNL1        0.1705
      8 H           1.8740    1.4278   -0.0000 H       1  UNL1        0.1076
@<TRIPOS>BOND
     1     1     7    1
     2     1     2    1
     3     1     4    2
     4     8     2    1
     5     2     3    2
     6     4     5    1
     7     4     6    1
