@<TRIPOS>MOLECULE
GS-815-0.out
 30 31 0 0 0
SMALL
MULLIKEN_CHARGES
****
Gaussian 16 # wB97XD def2tzvp, opt=(calcfc, maxcycles=70, maxstep=10), freq=norama
@<TRIPOS>ATOM
      1 C          -1.3980   -1.9490   -0.0998 C.2     1  UNL1       -0.2621
      2 C           0.0793   -1.8931    0.1114 C.2     1  UNL1        0.3785
      3 O           0.6197   -2.7203    0.8261 O.2     1  UNL1       -0.4647
      4 C          -2.2242   -0.9072   -0.0845 C.2     1  UNL1        0.1319
      5 CL         -3.9282   -1.1952   -0.3386 Cl      1  UNL1       -0.0911
      6 C          -1.8650    0.5079    0.1528 C.ar    1  UNL1        0.0539
      7 C          -1.1609    0.8581    1.3026 C.ar    1  UNL1       -0.1872
      8 C          -0.7695    2.1711    1.5069 C.ar    1  UNL1       -0.1307
      9 C          -1.0787    3.1432    0.5666 C.ar    1  UNL1       -0.1335
     10 C          -1.7895    2.8010   -0.5752 C.ar    1  UNL1       -0.1328
     11 C          -2.1890    1.4904   -0.7800 C.ar    1  UNL1       -0.1960
     12 H          -0.9187    0.0982    2.0349 H       1  UNL1        0.1627
     13 H          -0.2226    2.4343    2.4028 H       1  UNL1        0.1499
     14 H          -0.7690    4.1681    0.7249 H       1  UNL1        0.1510
     15 H          -2.0332    3.5566   -1.3107 H       1  UNL1        0.1498
     16 H          -2.7417    1.2251   -1.6724 H       1  UNL1        0.1544
     17 H          -1.7923   -2.9517   -0.1991 H       1  UNL1        0.1731
     18 N           0.7315   -0.9064   -0.5553 N.am    1  UNL1       -0.2448
     19 C           2.0550   -0.4637   -0.3868 C.ar    1  UNL1        0.3226
     20 C           2.3395    0.8419   -0.7865 C.ar    1  UNL1       -0.3068
     21 C           3.6212    1.3463   -0.6614 C.ar    1  UNL1       -0.1025
     22 C           4.6345    0.5588   -0.1313 C.ar    1  UNL1       -0.1833
     23 C           4.3486   -0.7383    0.2648 C.ar    1  UNL1       -0.0938
     24 C           3.0686   -1.2602    0.1387 C.ar    1  UNL1       -0.3182
     25 H           0.1504   -0.2928   -1.1029 H       1  UNL1        0.2684
     26 H           1.5472    1.4631   -1.1888 H       1  UNL1        0.1592
     27 H           3.8264    2.3619   -0.9748 H       1  UNL1        0.1459
     28 H           5.6369    0.9536   -0.0299 H       1  UNL1        0.1440
     29 H           5.1316   -1.3633    0.6756 H       1  UNL1        0.1456
     30 H           2.8552   -2.2717    0.4444 H       1  UNL1        0.1568
@<TRIPOS>BOND
     1    16    11    1
     2    15    10    1
     3    26    20    1
     4    25    18    1
     5    27    21    1
     6    20    21   ar
     7    20    19   ar
     8    11    10   ar
     9    11     6   ar
    10    21    22   ar
    11    10     9   ar
    12    18    19    1
    13    18     2   am
    14    19    24   ar
    15     5     4    1
    16    17     1    1
    17    22    28    1
    18    22    23   ar
    19     1     4    2
    20     1     2    1
    21     4     6    1
    22     2     3    2
    23    24    23   ar
    24    24    30    1
    25     6     7   ar
    26    23    29    1
    27     9    14    1
    28     9     8   ar
    29     7     8   ar
    30     7    12    1
    31     8    13    1
