@<TRIPOS>MOLECULE
GS-844-0.out
 22 22 0 0 0
SMALL
MULLIKEN_CHARGES
****
Gaussian 16 # wB97XD def2tzvp, opt=(calcfc, maxcycles=70, maxstep=10), freq=norama
@<TRIPOS>ATOM
      1 C          -0.6306    0.6040    0.0125 C.2     1  UNL1       -0.1450
      2 C          -1.9607   -0.0788   -0.0157 C.2     1  UNL1        0.4563
      3 O          -3.0261    0.4887    0.0189 O.2     1  UNL1       -0.4303
      4 C          -0.6681    1.9324    0.0377 C.2     1  UNL1       -0.0048
      5 CL          0.7267    2.9302    0.0843 Cl      1  UNL1       -0.0550
      6 H          -1.6003    2.4786    0.0358 H       1  UNL1        0.1846
      7 C           0.6217   -0.1936    0.0060 C.ar    1  UNL1        0.1682
      8 C           1.0985   -0.7632    1.1823 C.ar    1  UNL1       -0.2215
      9 C           2.2719   -1.5016    1.1759 C.ar    1  UNL1       -0.1436
     10 C           2.9765   -1.6795   -0.0065 C.ar    1  UNL1       -0.1308
     11 C           2.5043   -1.1145   -1.1823 C.ar    1  UNL1       -0.1425
     12 C           1.3316   -0.3740   -1.1763 C.ar    1  UNL1       -0.2246
     13 H           0.5485   -0.6261    2.1053 H       1  UNL1        0.1458
     14 H           2.6364   -1.9388    2.0968 H       1  UNL1        0.1456
     15 H           3.8921   -2.2571   -0.0111 H       1  UNL1        0.1473
     16 H           3.0496   -1.2493   -2.1077 H       1  UNL1        0.1454
     17 H           0.9633    0.0684   -2.0938 H       1  UNL1        0.1487
     18 O          -1.8314   -1.3982   -0.0884 O.3     1  UNL1       -0.2675
     19 C          -3.0430   -2.1562   -0.1197 C.3     1  UNL1       -0.2108
     20 H          -2.7364   -3.1963   -0.1727 H       1  UNL1        0.1493
     21 H          -3.6254   -1.9772    0.7831 H       1  UNL1        0.1426
     22 H          -3.6344   -1.8894   -0.9946 H       1  UNL1        0.1427
@<TRIPOS>BOND
     1    16    11    1
     2    17    12    1
     3    11    12   ar
     4    11    10   ar
     5    12     7   ar
     6    22    19    1
     7    20    19    1
     8    19    18    1
     9    19    21    1
    10    18     2    1
    11     2     1    1
    12     2     3    2
    13    15    10    1
    14    10     9   ar
    15     7     1    1
    16     7     8   ar
    17     1     4    2
    18     6     4    1
    19     4     5    1
    20     9     8   ar
    21     9    14    1
    22     8    13    1
