@<TRIPOS>MOLECULE
GS-863-0.out
 23 23 0 0 0
SMALL
MULLIKEN_CHARGES
****
Gaussian 16 # wB97XD def2tzvp, opt=(calcfc, maxcycles=70, maxstep=10), freq=norama
@<TRIPOS>ATOM
      1 C          -1.9553    0.2468   -0.0000 C.2     1  UNL1       -0.1270
      2 C          -0.5996   -0.4150   -0.0000 C.2     1  UNL1        0.4288
      3 O          -0.4686   -1.6285   -0.0000 O.2     1  UNL1       -0.4870
      4 C          -2.9769   -0.6028    0.0000 C.2     1  UNL1       -0.0285
      5 CL         -4.6369   -0.1426    0.0000 Cl      1  UNL1       -0.0806
      6 H          -2.8252   -1.6716    0.0001 H       1  UNL1        0.1835
      7 C          -2.0852    1.7387   -0.0001 C.3     1  UNL1       -0.4277
      8 H          -1.6175    2.1768    0.8849 H       1  UNL1        0.1618
      9 H          -1.6174    2.1767   -0.8850 H       1  UNL1        0.1618
     10 H          -3.1303    2.0371   -0.0001 H       1  UNL1        0.1443
     11 N           0.4458    0.4531    0.0000 N.am    1  UNL1       -0.2545
     12 C           1.8258    0.1855    0.0000 C.ar    1  UNL1        0.2975
     13 C           2.6781    1.2915    0.0000 C.ar    1  UNL1       -0.3013
     14 C           4.0499    1.1201    0.0000 C.ar    1  UNL1       -0.0996
     15 C           4.5967   -0.1564    0.0000 C.ar    1  UNL1       -0.1854
     16 C           3.7500   -1.2528   -0.0000 C.ar    1  UNL1       -0.1079
     17 C           2.3702   -1.0969   -0.0000 C.ar    1  UNL1       -0.2895
     18 H           0.2154    1.4319    0.0000 H       1  UNL1        0.2616
     19 H           2.2604    2.2916    0.0001 H       1  UNL1        0.1471
     20 H           4.6938    1.9902    0.0001 H       1  UNL1        0.1470
     21 H           5.6702   -0.2921    0.0000 H       1  UNL1        0.1442
     22 H           4.1622   -2.2541   -0.0000 H       1  UNL1        0.1450
     23 H           1.7213   -1.9566   -0.0000 H       1  UNL1        0.1664
@<TRIPOS>BOND
     1     9     7    1
     2    10     7    1
     3     7     1    1
     4     7     8    1
     5     3     2    2
     6    23    17    1
     7    22    16    1
     8     1     2    1
     9     1     4    2
    10     2    11   am
    11    17    16   ar
    12    17    12   ar
    13    16    15   ar
    14    11    12    1
    15    11    18    1
    16    12    13   ar
    17    15    21    1
    18    15    14   ar
    19     4     5    1
    20     4     6    1
    21    13    14   ar
    22    13    19    1
    23    14    20    1
