@<TRIPOS>MOLECULE
GS-833-0.out
 18 18 0 0 0
SMALL
MULLIKEN_CHARGES
****
Gaussian 16 # wB97XD def2tzvp, opt=(calcfc, maxcycles=70, maxstep=10), freq=norama
@<TRIPOS>ATOM
      1 C          -1.4239    0.3471   -0.0721 C.2     1  UNL1       -0.0062
      2 C          -1.1809    1.7683   -0.3999 C.2     1  UNL1        0.1026
      3 O          -2.0504    2.6001   -0.4589 O.2     1  UNL1       -0.3501
      4 C          -0.4156   -0.5328    0.0470 C.2     1  UNL1        0.0681
      5 CL         -0.7365   -2.2134    0.2620 Cl      1  UNL1       -0.0315
      6 C           1.0171   -0.1723    0.0323 C.ar    1  UNL1        0.1898
      7 C           1.5198    0.7273    0.9689 C.ar    1  UNL1       -0.2746
      8 C           2.8654    1.0618    0.9585 C.ar    1  UNL1       -0.0986
      9 C           3.7130    0.5006    0.0167 C.ar    1  UNL1       -0.1411
     10 C           3.2163   -0.4042   -0.9134 C.ar    1  UNL1       -0.1297
     11 C           1.8764   -0.7479   -0.9025 C.ar    1  UNL1       -0.2080
     12 H           0.8595    1.1534    1.7135 H       1  UNL1        0.1741
     13 H           3.2493    1.7590    1.6915 H       1  UNL1        0.1539
     14 H           4.7631    0.7629    0.0084 H       1  UNL1        0.1534
     15 H           3.8763   -0.8436   -1.6498 H       1  UNL1        0.1526
     16 H           1.4913   -1.4553   -1.6257 H       1  UNL1        0.1597
     17 CL         -3.0770   -0.1090    0.0754 Cl      1  UNL1       -0.0650
     18 H          -0.1322    2.0174   -0.6158 H       1  UNL1        0.1505
@<TRIPOS>BOND
     1    15    10    1
     2    16    11    1
     3    10    11   ar
     4    10     9   ar
     5    11     6   ar
     6    18     2    1
     7     3     2    2
     8     2     1    1
     9     1     4    2
    10     1    17    1
    11    14     9    1
    12     9     8   ar
    13     6     4    1
    14     6     7   ar
    15     4     5    1
    16     8     7   ar
    17     8    13    1
    18     7    12    1
