@<TRIPOS>MOLECULE
GS-896-0.out
 21 21 0 0 0
SMALL
MULLIKEN_CHARGES
****
Gaussian 16 # wB97XD def2tzvp, opt=(calcfc, maxcycles=70, maxstep=10), freq=norama
@<TRIPOS>ATOM
      1 C           1.1348   -0.1490   -0.3207 C.2     1  UNL1       -0.3547
      2 C           0.0134    0.8012   -0.1392 C.2     1  UNL1        0.3500
      3 O           0.1755    2.0063   -0.0800 O.2     1  UNL1       -0.4193
      4 C           2.3934    0.0874    0.0498 C.2     1  UNL1        0.1700
      5 CL          3.5750   -1.1558   -0.2832 Cl      1  UNL1       -0.0969
      6 C           2.9657    1.2719    0.7421 C.3     1  UNL1       -0.3517
      7 H           2.1793    1.9498    1.0594 H       1  UNL1        0.1512
      8 H           3.5565    0.9495    1.6000 H       1  UNL1        0.1487
      9 H           3.6344    1.8060    0.0634 H       1  UNL1        0.1566
     10 H           0.9013   -1.0992   -0.7804 H       1  UNL1        0.1832
     11 C          -1.3620    0.2202   -0.0605 C.ar    1  UNL1        0.1259
     12 C          -2.4508    1.0491   -0.3267 C.ar    1  UNL1       -0.2020
     13 C          -3.7412    0.5576   -0.2436 C.ar    1  UNL1       -0.1232
     14 C          -3.9575   -0.7652    0.1226 C.ar    1  UNL1       -0.1320
     15 C          -2.8806   -1.5937    0.4008 C.ar    1  UNL1       -0.1394
     16 C          -1.5866   -1.1061    0.3023 C.ar    1  UNL1       -0.2323
     17 H          -2.2706    2.0793   -0.6044 H       1  UNL1        0.1494
     18 H          -4.5811    1.2041   -0.4628 H       1  UNL1        0.1493
     19 H          -4.9673   -1.1493    0.1917 H       1  UNL1        0.1515
     20 H          -3.0471   -2.6219    0.6946 H       1  UNL1        0.1501
     21 H          -0.7558   -1.7605    0.5322 H       1  UNL1        0.1655
@<TRIPOS>BOND
     1    10     1    1
     2    17    12    1
     3    18    13    1
     4    12    13   ar
     5    12    11   ar
     6     1     2    1
     7     1     4    2
     8     5     4    1
     9    13    14   ar
    10     2     3    2
    11     2    11    1
    12    11    16   ar
    13     4     6    1
    14     9     6    1
    15    14    19    1
    16    14    15   ar
    17    16    15   ar
    18    16    21    1
    19    15    20    1
    20     6     7    1
    21     6     8    1
