@<TRIPOS>MOLECULE
GS-868-0.out
 12 11 0 0 0
SMALL
MULLIKEN_CHARGES
****
Gaussian 16 # wB97XD def2tzvp, opt=(calcfc, maxcycles=70, maxstep=10), freq=norama
@<TRIPOS>ATOM
      1 C           0.0990    0.3769    0.0000 C.2     1  UNL1       -0.1506
      2 C          -1.3354    0.8022    0.0000 C.2     1  UNL1        0.4602
      3 O          -1.6692    1.9612    0.0000 O.2     1  UNL1       -0.4145
      4 C           1.0244    1.3307   -0.0000 C.2     1  UNL1       -0.0305
      5 CL          2.7080    1.0760   -0.0000 Cl      1  UNL1       -0.0320
      6 H           0.7225    2.3685   -0.0000 H       1  UNL1        0.2019
      7 BR          0.5260   -1.4525    0.0000 Br      1  UNL1       -0.0148
      8 O          -2.1745   -0.2172   -0.0000 O.3     1  UNL1       -0.2645
      9 C          -3.5692    0.1081   -0.0000 C.3     1  UNL1       -0.2012
     10 H          -4.0894   -0.8443   -0.0000 H       1  UNL1        0.1536
     11 H          -3.8217    0.6813    0.8906 H       1  UNL1        0.1463
     12 H          -3.8217    0.6814   -0.8906 H       1  UNL1        0.1463
@<TRIPOS>BOND
     1    12     9    1
     2    10     9    1
     3     8     9    1
     4     8     2    1
     5     9    11    1
     6     5     4    1
     7     4     6    1
     8     4     1    2
     9     1     2    1
    10     1     7    1
    11     2     3    2
