@<TRIPOS>MOLECULE
GS-801-0.out
 28 29 0 0 0
SMALL
MULLIKEN_CHARGES
****
Gaussian 16 # wB97XD def2tzvp, opt=(calcfc, maxcycles=70, maxstep=10), freq=norama
@<TRIPOS>ATOM
      1 C           0.4347    0.5052   -0.1244 C.2     1  UNL1       -0.0504
      2 C           0.0376    1.9058   -0.3845 C.2     1  UNL1        0.1524
      3 O           0.8203    2.8274   -0.3986 O.2     1  UNL1       -0.3697
      4 C          -0.5205   -0.4338   -0.0266 C.2     1  UNL1        0.1264
      5 CL         -0.0730   -2.1100    0.0895 Cl      1  UNL1       -0.0573
      6 C          -1.9787   -0.2017    0.0146 C.ar    1  UNL1        0.1543
      7 C          -2.8208   -0.8091   -0.9157 C.ar    1  UNL1       -0.2178
      8 C          -4.1837   -0.5748   -0.8744 C.ar    1  UNL1       -0.1453
      9 C          -4.7216    0.2503    0.1056 C.ar    1  UNL1       -0.1268
     10 C          -3.8909    0.8424    1.0437 C.ar    1  UNL1       -0.1160
     11 C          -2.5230    0.6185    0.9998 C.ar    1  UNL1       -0.2708
     12 H          -2.4046   -1.4559   -1.6775 H       1  UNL1        0.1573
     13 H          -4.8298   -1.0380   -1.6087 H       1  UNL1        0.1504
     14 H          -5.7890    0.4265    0.1386 H       1  UNL1        0.1522
     15 H          -4.3051    1.4783    1.8151 H       1  UNL1        0.1514
     16 H          -1.8740    1.0709    1.7388 H       1  UNL1        0.1702
     17 C           1.8876    0.2167   -0.0295 C.ar    1  UNL1        0.1419
     18 C           2.6867    0.2417   -1.1679 C.ar    1  UNL1       -0.2292
     19 C           4.0457   -0.0166   -1.0747 C.ar    1  UNL1       -0.1433
     20 C           4.6192   -0.2924    0.1587 C.ar    1  UNL1       -0.1299
     21 C           3.8282   -0.3094    1.2985 C.ar    1  UNL1       -0.1446
     22 C           2.4681   -0.0558    1.2049 C.ar    1  UNL1       -0.2207
     23 H           2.2412    0.4587   -2.1311 H       1  UNL1        0.1460
     24 H           4.6580   -0.0013   -1.9673 H       1  UNL1        0.1450
     25 H           5.6807   -0.4922    0.2313 H       1  UNL1        0.1471
     26 H           4.2701   -0.5207    2.2639 H       1  UNL1        0.1450
     27 H           1.8499   -0.0711    2.0942 H       1  UNL1        0.1505
     28 H          -1.0289    2.0746   -0.5974 H       1  UNL1        0.1319
@<TRIPOS>BOND
     1    23    18    1
     2    24    19    1
     3    12     7    1
     4    13     8    1
     5    18    19   ar
     6    18    17   ar
     7    19    20   ar
     8     7     8   ar
     9     7     6   ar
    10     8     9   ar
    11    28     2    1
    12     3     2    2
    13     2     1    1
    14     1    17    1
    15     1     4    2
    16    17    22   ar
    17     4     6    1
    18     4     5    1
    19     6    11   ar
    20     9    14    1
    21     9    10   ar
    22    20    25    1
    23    20    21   ar
    24    11    10   ar
    25    11    16    1
    26    10    15    1
    27    22    21   ar
    28    22    27    1
    29    21    26    1
