@<TRIPOS>MOLECULE
GS-811-0.out
 20 20 0 0 0
SMALL
MULLIKEN_CHARGES
****
Gaussian 16 # wB97XD def2tzvp, opt=(calcfc, maxcycles=70, maxstep=10), freq=norama
@<TRIPOS>ATOM
      1 C           1.8963    0.2750   -0.0535 C.2     1  UNL1       -0.2321
      2 C           2.1119   -1.1960   -0.2026 C.2     1  UNL1        0.3055
      3 O           2.9879   -1.7458    0.4510 O.2     1  UNL1       -0.4680
      4 C           0.7259    0.8943    0.0500 C.2     1  UNL1        0.1051
      5 CL          0.7250    2.6363    0.2186 Cl      1  UNL1       -0.0983
      6 C          -0.6173    0.2776    0.0800 C.ar    1  UNL1        0.0808
      7 C          -0.9058   -0.7011    1.0273 C.ar    1  UNL1       -0.1826
      8 C          -2.1543   -1.3020    1.0503 C.ar    1  UNL1       -0.1340
      9 C          -3.1217   -0.9311    0.1281 C.ar    1  UNL1       -0.1345
     10 C          -2.8405    0.0488   -0.8143 C.ar    1  UNL1       -0.1357
     11 C          -1.5967    0.6576   -0.8349 C.ar    1  UNL1       -0.1916
     12 H          -0.1507   -0.9876    1.7484 H       1  UNL1        0.1617
     13 H          -2.3713   -2.0592    1.7925 H       1  UNL1        0.1497
     14 H          -4.0963   -1.4018    0.1457 H       1  UNL1        0.1508
     15 H          -3.5928    0.3414   -1.5353 H       1  UNL1        0.1498
     16 H          -1.3806    1.4243   -1.5682 H       1  UNL1        0.1537
     17 H           2.8139    0.8426    0.0294 H       1  UNL1        0.1741
     18 N           1.3536   -1.8463   -1.1002 N.am    1  UNL1       -0.4310
     19 H           1.4547   -2.8420   -1.1965 H       1  UNL1        0.2825
     20 H           0.6322   -1.3828   -1.6222 H       1  UNL1        0.2940
@<TRIPOS>BOND
     1    20    18    1
     2    16    11    1
     3    15    10    1
     4    19    18    1
     5    18     2   am
     6    11    10   ar
     7    11     6   ar
     8    10     9   ar
     9     2     1    1
    10     2     3    2
    11     1    17    1
    12     1     4    2
    13     4     6    1
    14     4     5    1
    15     6     7   ar
    16     9    14    1
    17     9     8   ar
    18     7     8   ar
    19     7    12    1
    20     8    13    1
