@<TRIPOS>MOLECULE
GS-817-0.out
 21 21 0 0 0
SMALL
MULLIKEN_CHARGES
****
Gaussian 16 # wB97XD def2tzvp, opt=(calcfc, maxcycles=70, maxstep=10), freq=norama
@<TRIPOS>ATOM
      1 C          -1.7336   -0.3040   -0.0525 C.2     1  UNL1       -0.0610
      2 C          -1.4743   -1.7207   -0.3802 C.2     1  UNL1        0.1511
      3 O          -2.3422   -2.5628   -0.4358 O.2     1  UNL1       -0.3834
      4 C          -0.6827    0.5236    0.0558 C.2     1  UNL1        0.0940
      5 CL         -0.9730    2.2266    0.2819 Cl      1  UNL1       -0.0722
      6 C           0.7502    0.1627    0.0329 C.ar    1  UNL1        0.1876
      7 C           1.2589   -0.7340    0.9694 C.ar    1  UNL1       -0.2758
      8 C           2.6029   -1.0759    0.9511 C.ar    1  UNL1       -0.1060
      9 C           3.4471   -0.5240    0.0005 C.ar    1  UNL1       -0.1401
     10 C           2.9465    0.3777   -0.9303 C.ar    1  UNL1       -0.1370
     11 C           1.6077    0.7270   -0.9104 C.ar    1  UNL1       -0.2123
     12 H           0.6010   -1.1553    1.7189 H       1  UNL1        0.1684
     13 H           2.9885   -1.7720    1.6845 H       1  UNL1        0.1511
     14 H           4.4958   -0.7914   -0.0142 H       1  UNL1        0.1514
     15 H           3.6027    0.8103   -1.6744 H       1  UNL1        0.1500
     16 H           1.2209    1.4325   -1.6349 H       1  UNL1        0.1560
     17 C          -3.1601    0.1313    0.0792 C.3     1  UNL1       -0.3924
     18 H          -3.4527    0.7658   -0.7599 H       1  UNL1        0.1483
     19 H          -3.8100   -0.7409    0.0933 H       1  UNL1        0.1423
     20 H          -3.3132    0.7041    0.9940 H       1  UNL1        0.1454
     21 H          -0.4305   -1.9853   -0.6066 H       1  UNL1        0.1348
@<TRIPOS>BOND
     1    15    10    1
     2    16    11    1
     3    10    11   ar
     4    10     9   ar
     5    11     6   ar
     6    18    17    1
     7    21     2    1
     8     3     2    2
     9     2     1    1
    10     1     4    2
    11     1    17    1
    12    14     9    1
    13     9     8   ar
    14     6     4    1
    15     6     7   ar
    16     4     5    1
    17    17    19    1
    18    17    20    1
    19     8     7   ar
    20     8    13    1
    21     7    12    1
