@<TRIPOS>MOLECULE
GS-852-0.out
 12 11 0 0 0
SMALL
MULLIKEN_CHARGES
****
Gaussian 16 # wB97XD def2tzvp, opt=(calcfc, maxcycles=70, maxstep=10), freq=norama
@<TRIPOS>ATOM
      1 C          -0.3261   -0.4024   -0.0000 C.2     1  UNL1       -0.2877
      2 C           1.0286    0.1905    0.0000 C.2     1  UNL1        0.4475
      3 O           1.2771    1.3723   -0.0000 O.2     1  UNL1       -0.4277
      4 C          -1.3841    0.3929    0.0000 C.2     1  UNL1        0.0055
      5 CL         -2.9971   -0.1949   -0.0000 Cl      1  UNL1       -0.0644
      6 H          -1.3068    1.4714    0.0000 H       1  UNL1        0.1912
      7 H          -0.4121   -1.4801    0.0000 H       1  UNL1        0.1736
      8 O           1.9576   -0.7627    0.0000 O.3     1  UNL1       -0.2762
      9 C           3.3184   -0.3246   -0.0000 C.3     1  UNL1       -0.1943
     10 H           3.9187   -1.2292   -0.0000 H       1  UNL1        0.1497
     11 H           3.5267    0.2677   -0.8901 H       1  UNL1        0.1413
     12 H           3.5267    0.2677    0.8901 H       1  UNL1        0.1413
@<TRIPOS>BOND
     1    11     9    1
     2    10     9    1
     3     1     4    2
     4     1     2    1
     5     1     7    1
     6     3     2    2
     7     9     8    1
     8     9    12    1
     9     4     5    1
    10     4     6    1
    11     8     2    1
