@<TRIPOS>MOLECULE
GS-854-0.out
 16 15 0 0 0
SMALL
MULLIKEN_CHARGES
****
Gaussian 16 # wB97XD def2tzvp, opt=(calcfc, maxcycles=70, maxstep=10), freq=norama
@<TRIPOS>ATOM
      1 C          -0.5450    0.2188    0.0654 C.2     1  UNL1       -0.2874
      2 C           0.7570   -0.5094    0.0114 C.2     1  UNL1        0.3485
      3 O           0.7881   -1.7385   -0.0046 O.2     1  UNL1       -0.5180
      4 C          -1.6676   -0.4704   -0.0558 C.2     1  UNL1       -0.0216
      5 CL         -3.2263    0.2599    0.0086 Cl      1  UNL1       -0.0797
      6 H          -1.6875   -1.5409   -0.2023 H       1  UNL1        0.1837
      7 H          -0.5770    1.2879    0.2146 H       1  UNL1        0.1778
      8 N           1.8727    0.2503   -0.0085 N.am    1  UNL1       -0.0929
      9 C           3.1765   -0.3844    0.0263 C.3     1  UNL1       -0.2957
     10 C           1.8649    1.7057   -0.0449 C.3     1  UNL1       -0.3295
     11 H           3.0513   -1.4551    0.1482 H       1  UNL1        0.1493
     12 H           3.7207   -0.1891   -0.9004 H       1  UNL1        0.1446
     13 H           3.7580    0.0099    0.8619 H       1  UNL1        0.1464
     14 H           1.1971    2.0848   -0.8167 H       1  UNL1        0.1558
     15 H           1.5872    2.1363    0.9195 H       1  UNL1        0.1575
     16 H           2.8700    2.0420   -0.2880 H       1  UNL1        0.1611
@<TRIPOS>BOND
     1    12     9    1
     2    14    10    1
     3    16    10    1
     4     6     4    1
     5     4     5    1
     6     4     1    2
     7    10     8    1
     8    10    15    1
     9     8     2   am
    10     8     9    1
    11     3     2    2
    12     2     1    1
    13     9    11    1
    14     9    13    1
    15     1     7    1
