@<TRIPOS>MOLECULE
GS-898-0.out
 17 16 0 0 0
SMALL
MULLIKEN_CHARGES
****
Gaussian 16 # wB97XD def2tzvp, opt=(calcfc, maxcycles=70, maxstep=10), freq=norama
@<TRIPOS>ATOM
      1 C           0.2727    0.3864   -0.1321 C.2     1  UNL1       -0.0944
      2 C           1.6311   -0.2521   -0.1148 C.2     1  UNL1        0.2760
      3 O           1.8635   -1.3069   -0.6657 O.2     1  UNL1       -0.3972
      4 C          -0.8124   -0.3737    0.0357 C.2     1  UNL1        0.0959
      5 CL         -2.4007    0.3766    0.0450 Cl      1  UNL1       -0.1188
      6 C          -0.9059   -1.8452    0.2662 C.3     1  UNL1       -0.3473
      7 H           0.0739   -2.2894    0.4083 H       1  UNL1        0.1423
      8 H          -1.5271   -2.0414    1.1410 H       1  UNL1        0.1418
      9 H          -1.3816   -2.3273   -0.5904 H       1  UNL1        0.1481
     10 C           0.2626    1.8814   -0.2884 C.3     1  UNL1       -0.3714
     11 H           0.9273    2.1879   -1.0978 H       1  UNL1        0.1539
     12 H          -0.7339    2.2531   -0.5077 H       1  UNL1        0.1403
     13 H           0.6130    2.3695    0.6240 H       1  UNL1        0.1506
     14 C           2.7159    0.5032    0.6073 C.3     1  UNL1       -0.3793
     15 H           2.3747    0.8213    1.5937 H       1  UNL1        0.1595
     16 H           3.5984   -0.1256    0.6969 H       1  UNL1        0.1420
     17 H           2.9748    1.4056    0.0494 H       1  UNL1        0.1578
@<TRIPOS>BOND
     1    11    10    1
     2     3     2    2
     3     9     6    1
     4    12    10    1
     5    10     1    1
     6    10    13    1
     7     1     2    1
     8     1     4    2
     9     2    14    1
    10     4     5    1
    11     4     6    1
    12    17    14    1
    13     6     7    1
    14     6     8    1
    15    14    16    1
    16    14    15    1
