@<TRIPOS>MOLECULE
GS-885-0.out
 26 26 0 0 0
SMALL
MULLIKEN_CHARGES
****
Gaussian 16 # wB97XD def2tzvp, opt=(calcfc, maxcycles=70, maxstep=10), freq=norama
@<TRIPOS>ATOM
      1 C           0.6541    0.2320    0.0603 C.2     1  UNL1       -0.0837
      2 C           1.5681   -0.9658    0.1412 C.2     1  UNL1        0.3575
      3 O           2.6611   -0.9484    0.6955 O.2     1  UNL1       -0.4946
      4 C           1.1584    1.4655   -0.0139 C.2     1  UNL1        0.0963
      5 CL          0.0571    2.8285   -0.0332 Cl      1  UNL1       -0.1015
      6 C           2.5823    1.8977   -0.0971 C.3     1  UNL1       -0.3660
      7 H           2.7097    2.5664   -0.9497 H       1  UNL1        0.1439
      8 H           2.8552    2.4546    0.8015 H       1  UNL1        0.1494
      9 H           3.2437    1.0430   -0.1915 H       1  UNL1        0.1475
     10 C          -0.8089   -0.0484    0.0605 C.ar    1  UNL1        0.0670
     11 C          -1.4411   -0.4547    1.2327 C.ar    1  UNL1       -0.1810
     12 C          -2.7966   -0.7442    1.2349 C.ar    1  UNL1       -0.1521
     13 C          -3.5326   -0.6428    0.0624 C.ar    1  UNL1       -0.1247
     14 C          -2.9075   -0.2490   -1.1116 C.ar    1  UNL1       -0.1344
     15 C          -1.5523    0.0473   -1.1127 C.ar    1  UNL1       -0.2061
     16 H          -0.8670   -0.5400    2.1474 H       1  UNL1        0.1464
     17 H          -3.2788   -1.0521    2.1540 H       1  UNL1        0.1458
     18 H          -4.5904   -0.8724    0.0638 H       1  UNL1        0.1482
     19 H          -3.4750   -0.1707   -2.0302 H       1  UNL1        0.1464
     20 H          -1.0644    0.3581   -2.0285 H       1  UNL1        0.1515
     21 N           1.0826   -2.0798   -0.4326 N.am    1  UNL1       -0.2865
     22 C           1.8169   -3.3244   -0.4238 C.3     1  UNL1       -0.2636
     23 H           0.1752   -2.0531   -0.8630 H       1  UNL1        0.2729
     24 H           2.0299   -3.6413    0.5982 H       1  UNL1        0.1373
     25 H           1.2149   -4.0859   -0.9129 H       1  UNL1        0.1478
     26 H           2.7641   -3.2244   -0.9561 H       1  UNL1        0.1361
@<TRIPOS>BOND
     1    19    14    1
     2    20    15    1
     3    15    14   ar
     4    15    10   ar
     5    14    13   ar
     6    26    22    1
     7     7     6    1
     8    25    22    1
     9    23    21    1
    10    21    22    1
    11    21     2   am
    12    22    24    1
    13     9     6    1
    14     6     4    1
    15     6     8    1
    16     5     4    1
    17     4     1    2
    18     1    10    1
    19     1     2    1
    20    10    11   ar
    21    13    18    1
    22    13    12   ar
    23     2     3    2
    24    11    12   ar
    25    11    16    1
    26    12    17    1
