@<TRIPOS>MOLECULE
GS-853-0.out
 13 12 0 0 0
SMALL
MULLIKEN_CHARGES
****
Gaussian 16 # wB97XD def2tzvp, opt=(calcfc, maxcycles=70, maxstep=10), freq=norama
@<TRIPOS>ATOM
      1 C          -0.3440   -0.4026    0.0000 C.2     1  UNL1       -0.2841
      2 C           1.0204    0.1956    0.0000 C.2     1  UNL1        0.3978
      3 O           1.2165    1.4061    0.0000 O.2     1  UNL1       -0.5039
      4 C          -1.4027    0.3891   -0.0000 C.2     1  UNL1       -0.0212
      5 CL         -3.0203   -0.2013   -0.0000 Cl      1  UNL1       -0.0796
      6 H          -1.3254    1.4675   -0.0000 H       1  UNL1        0.1847
      7 H          -0.4502   -1.4804    0.0000 H       1  UNL1        0.1668
      8 N           2.0229   -0.6986    0.0000 N.am    1  UNL1       -0.3125
      9 C           3.4106   -0.2931   -0.0000 C.3     1  UNL1       -0.2487
     10 H           1.8058   -1.6790    0.0000 H       1  UNL1        0.2759
     11 H           4.0334   -1.1838   -0.0001 H       1  UNL1        0.1491
     12 H           3.6415    0.3022   -0.8846 H       1  UNL1        0.1379
     13 H           3.6416    0.3021    0.8846 H       1  UNL1        0.1379
@<TRIPOS>BOND
     1    12     9    1
     2    11     9    1
     3     6     4    1
     4     9     8    1
     5     9    13    1
     6     5     4    1
     7     4     1    2
     8    10     8    1
     9     3     2    2
    10     8     2   am
    11     2     1    1
    12     1     7    1
