@<TRIPOS>MOLECULE
GS-887-0.out
 33 34 0 0 0
SMALL
MULLIKEN_CHARGES
****
Gaussian 16 # wB97XD def2tzvp, opt=(calcfc, maxcycles=70, maxstep=10), freq=norama
@<TRIPOS>ATOM
      1 C           1.1869   -0.7560    0.0719 C.2     1  UNL1       -0.0828
      2 C          -0.2718   -1.0766    0.2845 C.2     1  UNL1        0.4048
      3 O          -0.6565   -2.0792    0.8614 O.2     1  UNL1       -0.4733
      4 C           2.0605   -1.7400   -0.1555 C.2     1  UNL1        0.1000
      5 CL          3.7586   -1.3451   -0.3026 Cl      1  UNL1       -0.0928
      6 C           1.8091   -3.1998   -0.3207 C.3     1  UNL1       -0.3690
      7 H           0.7468   -3.4151   -0.3640 H       1  UNL1        0.1472
      8 H           2.2961   -3.5504   -1.2315 H       1  UNL1        0.1461
      9 H           2.2428   -3.7490    0.5174 H       1  UNL1        0.1525
     10 C           1.5692    0.6820    0.1354 C.ar    1  UNL1        0.0330
     11 C           1.9185    1.3788   -1.0185 C.ar    1  UNL1       -0.1997
     12 C           2.2327    2.7282   -0.9554 C.ar    1  UNL1       -0.1388
     13 C           2.2017    3.3934    0.2614 C.ar    1  UNL1       -0.1185
     14 C           1.8505    2.7060    1.4151 C.ar    1  UNL1       -0.1530
     15 C           1.5299    1.3592    1.3517 C.ar    1  UNL1       -0.1770
     16 H           1.9440    0.8585   -1.9681 H       1  UNL1        0.1547
     17 H           2.5022    3.2596   -1.8591 H       1  UNL1        0.1472
     18 H           2.4479    4.4463    0.3109 H       1  UNL1        0.1490
     19 H           1.8233    3.2205    2.3671 H       1  UNL1        0.1467
     20 H           1.2495    0.8258    2.2520 H       1  UNL1        0.1478
     21 N          -1.1044   -0.1240   -0.2148 N.am    1  UNL1       -0.2396
     22 C          -2.5053   -0.0463   -0.1590 C.ar    1  UNL1        0.3019
     23 C          -3.0898    1.1213   -0.6534 C.ar    1  UNL1       -0.3071
     24 C          -4.4634    1.2773   -0.6410 C.ar    1  UNL1       -0.1024
     25 C          -5.2785    0.2735   -0.1346 C.ar    1  UNL1       -0.1836
     26 C          -4.6972   -0.8849    0.3548 C.ar    1  UNL1       -0.1125
     27 C          -3.3196   -1.0575    0.3469 C.ar    1  UNL1       -0.2886
     28 H          -0.6534    0.6652   -0.6499 H       1  UNL1        0.2626
     29 H          -2.4606    1.9104   -1.0483 H       1  UNL1        0.1466
     30 H          -4.8979    2.1899   -1.0286 H       1  UNL1        0.1467
     31 H          -6.3537    0.3949   -0.1233 H       1  UNL1        0.1439
     32 H          -5.3206   -1.6768    0.7511 H       1  UNL1        0.1447
     33 H          -2.8783   -1.9633    0.7281 H       1  UNL1        0.1631
@<TRIPOS>BOND
     1    16    11    1
     2    17    12    1
     3     8     6    1
     4    29    23    1
     5    30    24    1
     6    11    12   ar
     7    11    10   ar
     8    12    13   ar
     9    23    24   ar
    10    23    22   ar
    11    28    21    1
    12    24    25   ar
    13     7     6    1
    14     6     4    1
    15     6     9    1
    16     5     4    1
    17    21    22    1
    18    21     2   am
    19    22    27   ar
    20     4     1    2
    21    25    31    1
    22    25    26   ar
    23     1    10    1
    24     1     2    1
    25    10    15   ar
    26    13    18    1
    27    13    14   ar
    28     2     3    2
    29    27    26   ar
    30    27    33    1
    31    26    32    1
    32    15    14   ar
    33    15    20    1
    34    14    19    1
