@<TRIPOS>MOLECULE
GS-86-0.out
 39 40 0 0 0
SMALL
MULLIKEN_CHARGES
****
Gaussian 16 # wB97XD def2tzvp, opt=(calcfc, maxcycles=70, maxstep=10), freq=norama
@<TRIPOS>ATOM
      1 C           0.6774   -0.4016   -0.3012 C.2     1  UNL1       -0.0302
      2 C           2.1166   -0.7446   -0.5976 C.2     1  UNL1        0.1825
      3 O           2.4855   -0.8588   -1.7644 O.2     1  UNL1       -0.4880
      4 C          -0.2570   -1.3571   -0.2870 C.2     1  UNL1        0.1278
      5 C          -1.7068   -1.0433   -0.1748 C.ar    1  UNL1        0.1039
      6 C          -2.3230   -0.2077   -1.1040 C.ar    1  UNL1       -0.2247
      7 C          -3.6751    0.0818   -1.0092 C.ar    1  UNL1       -0.1561
      8 C          -4.4335   -0.4595    0.0193 C.ar    1  UNL1       -0.1327
      9 C          -3.8318   -1.3001    0.9450 C.ar    1  UNL1       -0.1561
     10 C          -2.4810   -1.5964    0.8429 C.ar    1  UNL1       -0.2434
     11 H          -1.7325    0.2206   -1.9043 H       1  UNL1        0.1540
     12 H          -4.1375    0.7325   -1.7408 H       1  UNL1        0.1413
     13 H          -5.4888   -0.2307    0.0969 H       1  UNL1        0.1442
     14 H          -4.4156   -1.7269    1.7509 H       1  UNL1        0.1419
     15 H          -2.0213   -2.2488    1.5755 H       1  UNL1        0.1490
     16 C           0.0769   -2.8172   -0.4102 C.3     1  UNL1       -0.3563
     17 H          -0.3015   -3.3670    0.4546 H       1  UNL1        0.1398
     18 H          -0.4072   -3.2423   -1.2925 H       1  UNL1        0.1426
     19 H           1.1481   -2.9977   -0.4822 H       1  UNL1        0.1393
     20 C           0.4309    1.0488   -0.0880 C.ar    1  UNL1        0.1566
     21 C          -0.3034    1.4987    1.0087 C.ar    1  UNL1       -0.2470
     22 C          -0.5163    2.8526    1.2112 C.ar    1  UNL1       -0.1508
     23 C           0.0077    3.7823    0.3236 C.ar    1  UNL1       -0.1318
     24 C           0.7536    3.3469   -0.7622 C.ar    1  UNL1       -0.1633
     25 C           0.9689    1.9919   -0.9628 C.ar    1  UNL1       -0.2250
     26 H          -0.7114    0.7795    1.7074 H       1  UNL1        0.1673
     27 H          -1.0897    3.1827    2.0683 H       1  UNL1        0.1410
     28 H          -0.1592    4.8402    0.4813 H       1  UNL1        0.1442
     29 H           1.1700    4.0647   -1.4578 H       1  UNL1        0.1413
     30 H           1.5504    1.6580   -1.8133 H       1  UNL1        0.1439
     31 N           2.9531   -0.8678    0.4510 N.am    1  UNL1       -0.0803
     32 C           4.3668   -1.1001    0.2360 C.3     1  UNL1       -0.2808
     33 C           2.5476   -0.7522    1.8368 C.3     1  UNL1       -0.2819
     34 H           4.5732   -1.1051   -0.8293 H       1  UNL1        0.1503
     35 H           4.9491   -0.3106    0.7165 H       1  UNL1        0.1390
     36 H           4.6612   -2.0596    0.6672 H       1  UNL1        0.1424
     37 H           1.4659   -0.7251    1.9209 H       1  UNL1        0.1659
     38 H           2.9162   -1.6142    2.3965 H       1  UNL1        0.1448
     39 H           2.9632    0.1545    2.2836 H       1  UNL1        0.1452
@<TRIPOS>BOND
     1    11     6    1
     2    30    25    1
     3     3     2    2
     4    12     7    1
     5    29    24    1
     6    18    16    1
     7     6     7   ar
     8     6     5   ar
     9     7     8   ar
    10    25    24   ar
    11    25    20   ar
    12    34    32    1
    13    24    23   ar
    14     2     1    1
    15     2    31   am
    16    19    16    1
    17    16     4    1
    18    16    17    1
    19     1     4    2
    20     1    20    1
    21     4     5    1
    22     5    10   ar
    23    20    21   ar
    24     8    13    1
    25     8     9   ar
    26    32    31    1
    27    32    36    1
    28    32    35    1
    29    23    28    1
    30    23    22   ar
    31    31    33    1
    32    10     9   ar
    33    10    15    1
    34     9    14    1
    35    21    22   ar
    36    21    26    1
    37    22    27    1
    38    33    37    1
    39    33    39    1
    40    33    38    1
