@<TRIPOS>MOLECULE
GS-838-0.out
 26 26 0 0 0
SMALL
MULLIKEN_CHARGES
****
Gaussian 16 # wB97XD def2tzvp, opt=(calcfc, maxcycles=70, maxstep=10), freq=norama
@<TRIPOS>ATOM
      1 C           1.3531   -0.2494   -0.1588 C.2     1  UNL1        0.0022
      2 C           1.1934    1.2348   -0.3962 C.2     1  UNL1        0.2053
      3 O           1.5568    1.6904   -1.4733 O.2     1  UNL1       -0.4632
      4 C           0.3324   -1.1027   -0.1033 C.2     1  UNL1        0.0073
      5 CL          0.6077   -2.8040    0.0946 Cl      1  UNL1       -0.0703
      6 C          -1.0859   -0.6903   -0.1830 C.ar    1  UNL1        0.2148
      7 C          -1.9895   -1.0944    0.7988 C.ar    1  UNL1       -0.2585
      8 C          -3.3066   -0.6728    0.7488 C.ar    1  UNL1       -0.1181
      9 C          -3.7381    0.1478   -0.2851 C.ar    1  UNL1       -0.1370
     10 C          -2.8471    0.5408   -1.2718 C.ar    1  UNL1       -0.1376
     11 C          -1.5263    0.1217   -1.2249 C.ar    1  UNL1       -0.2080
     12 H          -1.6558   -1.7310    1.6082 H       1  UNL1        0.1542
     13 H          -3.9985   -0.9838    1.5208 H       1  UNL1        0.1493
     14 H          -4.7691    0.4751   -0.3232 H       1  UNL1        0.1501
     15 H          -3.1797    1.1706   -2.0867 H       1  UNL1        0.1494
     16 H          -0.8359    0.4215   -2.0024 H       1  UNL1        0.1578
     17 CL          3.0036   -0.7465   -0.0935 Cl      1  UNL1       -0.0628
     18 N           0.6634    1.9685    0.5935 N.am    1  UNL1       -0.0766
     19 C           0.3684    3.3701    0.3643 C.3     1  UNL1       -0.2791
     20 C           0.3136    1.4722    1.9106 C.3     1  UNL1       -0.3193
     21 H           0.5409    3.6116   -0.6792 H       1  UNL1        0.1538
     22 H          -0.6757    3.5640    0.6173 H       1  UNL1        0.1439
     23 H           1.0036    3.9983    0.9920 H       1  UNL1        0.1510
     24 H          -0.7711    1.3969    2.0162 H       1  UNL1        0.1607
     25 H           0.7563    0.4981    2.0925 H       1  UNL1        0.1724
     26 H           0.6913    2.1684    2.6603 H       1  UNL1        0.1583
@<TRIPOS>BOND
     1    15    10    1
     2    16    11    1
     3     3     2    2
     4    10    11   ar
     5    10     9   ar
     6    11     6   ar
     7    21    19    1
     8     2     1    1
     9     2    18   am
    10    14     9    1
    11     9     8   ar
    12     6     4    1
    13     6     7   ar
    14     1     4    2
    15     1    17    1
    16     4     5    1
    17    19    18    1
    18    19    22    1
    19    19    23    1
    20    18    20    1
    21     8     7   ar
    22     8    13    1
    23     7    12    1
    24    20    24    1
    25    20    25    1
    26    20    26    1
