@<TRIPOS>MOLECULE
GS-876-0.out
 12 11 0 0 0
SMALL
MULLIKEN_CHARGES
****
Gaussian 16 # wB97XD def2tzvp, opt=(calcfc, maxcycles=70, maxstep=10), freq=norama
@<TRIPOS>ATOM
      1 C          -0.2297   -0.0005    0.0000 C.2     1  UNL1       -0.0918
      2 C           1.1675   -0.5357    0.0000 C.2     1  UNL1        0.4507
      3 O           1.4108   -1.7167    0.0000 O.2     1  UNL1       -0.4141
      4 C          -1.2325   -0.8731   -0.0000 C.2     1  UNL1       -0.0402
      5 CL         -2.8839   -0.4587   -0.0000 Cl      1  UNL1       -0.0352
      6 H          -1.0228   -1.9326   -0.0000 H       1  UNL1        0.2021
      7 CL         -0.4780    1.7012    0.0000 Cl      1  UNL1       -0.0523
      8 O           2.0793    0.4188   -0.0000 O.3     1  UNL1       -0.2662
      9 C           3.4462   -0.0092   -0.0000 C.3     1  UNL1       -0.1996
     10 H           4.0359    0.9018   -0.0000 H       1  UNL1        0.1537
     11 H           3.6554   -0.5996    0.8906 H       1  UNL1        0.1465
     12 H           3.6554   -0.5996   -0.8906 H       1  UNL1        0.1465
@<TRIPOS>BOND
     1    12     9    1
     2    10     9    1
     3     8     9    1
     4     8     2    1
     5     6     4    1
     6     9    11    1
     7     4     5    1
     8     4     1    2
     9     1     2    1
    10     1     7    1
    11     2     3    2
