@<TRIPOS>MOLECULE
GS-866-0.out
 11 10 0 0 0
SMALL
MULLIKEN_CHARGES
****
Gaussian 16 # wB97XD def2tzvp, opt=(calcfc, maxcycles=70, maxstep=10), freq=norama
@<TRIPOS>ATOM
      1 C          -0.1861    0.4319   -0.0000 C.2     1  UNL1       -0.1049
      2 C          -1.5820    1.0023   -0.0000 C.2     1  UNL1        0.2826
      3 O          -1.7241    2.2040   -0.0000 O.2     1  UNL1       -0.3832
      4 C           0.8438    1.2730    0.0000 C.2     1  UNL1       -0.0298
      5 CL          2.4901    0.8369    0.0000 Cl      1  UNL1       -0.0323
      6 H           0.6584    2.3379    0.0000 H       1  UNL1        0.1990
      7 BR          0.0555   -1.4369   -0.0000 Br      1  UNL1       -0.0325
      8 C          -2.7492    0.0634    0.0000 C.3     1  UNL1       -0.3716
      9 H          -2.7155   -0.5846    0.8776 H       1  UNL1        0.1634
     10 H          -3.6693    0.6415    0.0000 H       1  UNL1        0.1458
     11 H          -2.7155   -0.5846   -0.8776 H       1  UNL1        0.1634
@<TRIPOS>BOND
     1    11     8    1
     2     3     2    2
     3     7     1    1
     4     1     2    1
     5     1     4    2
     6     2     8    1
     7     4     6    1
     8     4     5    1
     9     8    10    1
    10     8     9    1
