@<TRIPOS>MOLECULE
GS-812-0.out
 22 22 0 0 0
SMALL
MULLIKEN_CHARGES
****
Gaussian 16 # wB97XD def2tzvp, opt=(calcfc, maxcycles=70, maxstep=10), freq=norama
@<TRIPOS>ATOM
      1 C           1.2954    1.0180    0.0247 C.2     1  UNL1       -0.3084
      2 C           1.9820   -0.2755   -0.1829 C.2     1  UNL1        0.4424
      3 O           1.4861   -1.3103   -0.5547 O.2     1  UNL1       -0.4163
      4 C          -0.0259    1.1702    0.0680 C.2     1  UNL1        0.1291
      5 CL         -0.6505    2.7940    0.2076 Cl      1  UNL1       -0.0822
      6 C          -1.0687    0.1248    0.0469 C.ar    1  UNL1        0.2284
      7 C          -1.1317   -0.8071    1.0776 C.ar    1  UNL1       -0.2419
      8 C          -2.1153   -1.7827    1.0719 C.ar    1  UNL1       -0.1224
      9 C          -3.0364   -1.8364    0.0356 C.ar    1  UNL1       -0.1446
     10 C          -2.9780   -0.9049   -0.9918 C.ar    1  UNL1       -0.1325
     11 C          -2.0039    0.0800   -0.9827 C.ar    1  UNL1       -0.2313
     12 H          -0.4087   -0.7654    1.8820 H       1  UNL1        0.1580
     13 H          -2.1614   -2.5028    1.8787 H       1  UNL1        0.1482
     14 H          -3.8024   -2.6013    0.0304 H       1  UNL1        0.1494
     15 H          -3.6950   -0.9430   -1.8017 H       1  UNL1        0.1484
     16 H          -1.9634    0.8107   -1.7808 H       1  UNL1        0.1526
     17 H           1.9385    1.8811    0.1232 H       1  UNL1        0.1683
     18 O           3.2841   -0.1361    0.0772 O.3     1  UNL1       -0.2762
     19 C           4.0946   -1.2988   -0.1026 C.3     1  UNL1       -0.1980
     20 H           5.1060   -0.9940    0.1485 H       1  UNL1        0.1488
     21 H           3.7650   -2.0988    0.5593 H       1  UNL1        0.1399
     22 H           4.0472   -1.6394   -1.1362 H       1  UNL1        0.1404
@<TRIPOS>BOND
     1    15    10    1
     2    16    11    1
     3    22    19    1
     4    10    11   ar
     5    10     9   ar
     6    11     6   ar
     7     3     2    2
     8     2     1    1
     9     2    18    1
    10    19    18    1
    11    19    20    1
    12    19    21    1
    13     1     4    2
    14     1    17    1
    15    14     9    1
    16     9     8   ar
    17     6     4    1
    18     6     7   ar
    19     4     5    1
    20     8     7   ar
    21     8    13    1
    22     7    12    1
