@<TRIPOS>MOLECULE
GS-840-0.out
 28 29 0 0 0
SMALL
MULLIKEN_CHARGES
****
Gaussian 16 # wB97XD def2tzvp, opt=(calcfc, maxcycles=70, maxstep=10), freq=norama
@<TRIPOS>ATOM
      1 C          -1.4868   -0.8343    0.1844 C.2     1  UNL1        0.0247
      2 C          -0.2707   -1.5001    0.7879 C.2     1  UNL1        0.2151
      3 O          -0.3942   -2.1344    1.8103 O.2     1  UNL1       -0.3513
      4 C          -1.5543    0.4689   -0.0945 C.2     1  UNL1        0.0039
      5 CL         -2.9839    1.1569   -0.7894 Cl      1  UNL1       -0.0611
      6 C          -0.4591    1.4208    0.1800 C.ar    1  UNL1        0.2223
      7 C           0.0469    2.2275   -0.8376 C.ar    1  UNL1       -0.2323
      8 C           1.1111    3.0741   -0.5860 C.ar    1  UNL1       -0.1316
      9 C           1.6701    3.1352    0.6849 C.ar    1  UNL1       -0.1293
     10 C           1.1557    2.3513    1.7050 C.ar    1  UNL1       -0.1344
     11 C           0.0918    1.4974    1.4556 C.ar    1  UNL1       -0.2345
     12 H          -0.3819    2.1753   -1.8303 H       1  UNL1        0.1571
     13 H           1.5097    3.6865   -1.3843 H       1  UNL1        0.1497
     14 H           2.5026    3.7993    0.8784 H       1  UNL1        0.1509
     15 H           1.5787    2.4039    2.6997 H       1  UNL1        0.1505
     16 H          -0.3162    0.8931    2.2558 H       1  UNL1        0.1684
     17 CL         -2.8169   -1.9091   -0.0385 Cl      1  UNL1       -0.0629
     18 C           1.0303   -1.3868    0.0796 C.ar    1  UNL1        0.1315
     19 C           1.1011   -1.1059   -1.2822 C.ar    1  UNL1       -0.2107
     20 C           2.3318   -1.0498   -1.9153 C.ar    1  UNL1       -0.1398
     21 C           3.4951   -1.2565   -1.1885 C.ar    1  UNL1       -0.1227
     22 C           3.4297   -1.5336    0.1718 C.ar    1  UNL1       -0.1157
     23 C           2.2014   -1.6082    0.8022 C.ar    1  UNL1       -0.2280
     24 H           0.1958   -0.9383   -1.8510 H       1  UNL1        0.1742
     25 H           2.3826   -0.8400   -2.9755 H       1  UNL1        0.1507
     26 H           4.4570   -1.2010   -1.6822 H       1  UNL1        0.1530
     27 H           4.3383   -1.6905    0.7382 H       1  UNL1        0.1509
     28 H           2.1361   -1.8250    1.8603 H       1  UNL1        0.1512
@<TRIPOS>BOND
     1    25    20    1
     2    20    19   ar
     3    20    21   ar
     4    24    19    1
     5    12     7    1
     6    26    21    1
     7    13     8    1
     8    19    18   ar
     9    21    22   ar
    10     7     8   ar
    11     7     6   ar
    12     5     4    1
    13     8     9   ar
    14     4     6    1
    15     4     1    2
    16    17     1    1
    17    18     2    1
    18    18    23   ar
    19    22    27    1
    20    22    23   ar
    21     6    11   ar
    22     1     2    1
    23     9    14    1
    24     9    10   ar
    25     2     3    2
    26    23    28    1
    27    11    10   ar
    28    11    16    1
    29    10    15    1
