@<TRIPOS>MOLECULE
GS-837-0.out
 23 23 0 0 0
SMALL
MULLIKEN_CHARGES
****
Gaussian 16 # wB97XD def2tzvp, opt=(calcfc, maxcycles=70, maxstep=10), freq=norama
@<TRIPOS>ATOM
      1 C          -1.2066    0.4512   -0.1050 C.2     1  UNL1       -0.0319
      2 C          -1.3242   -1.0128   -0.4719 C.2     1  UNL1        0.2950
      3 O          -0.8741   -1.4344   -1.5247 O.2     1  UNL1       -0.4500
      4 C          -0.0311    1.0449    0.0859 C.2     1  UNL1        0.0254
      5 CL          0.0709    2.7531    0.3641 Cl      1  UNL1       -0.0697
      6 C           1.2583    0.3201    0.0905 C.ar    1  UNL1        0.2036
      7 C           2.2854    0.7009   -0.7702 C.ar    1  UNL1       -0.2235
      8 C           3.4793    0.0009   -0.7790 C.ar    1  UNL1       -0.1370
      9 C           3.6629   -1.0775    0.0770 C.ar    1  UNL1       -0.1377
     10 C           2.6484   -1.4511    0.9448 C.ar    1  UNL1       -0.1385
     11 C           1.4501   -0.7535    0.9551 C.ar    1  UNL1       -0.2102
     12 H           2.1444    1.5404   -1.4392 H       1  UNL1        0.1550
     13 H           4.2693    0.2965   -1.4571 H       1  UNL1        0.1491
     14 H           4.5984   -1.6219    0.0697 H       1  UNL1        0.1498
     15 H           2.7896   -2.2835    1.6219 H       1  UNL1        0.1491
     16 H           0.6628   -1.0393    1.6409 H       1  UNL1        0.1623
     17 CL         -2.7135    1.2932   -0.0301 Cl      1  UNL1       -0.0593
     18 N          -1.9633   -1.7734    0.4230 N.am    1  UNL1       -0.2966
     19 C          -2.1850   -3.1869    0.2044 C.3     1  UNL1       -0.2561
     20 H          -2.2933   -1.3533    1.2742 H       1  UNL1        0.2846
     21 H          -2.7303   -3.5870    1.0549 H       1  UNL1        0.1517
     22 H          -2.7682   -3.3501   -0.7025 H       1  UNL1        0.1421
     23 H          -1.2362   -3.7161    0.1073 H       1  UNL1        0.1429
@<TRIPOS>BOND
     1     3     2    2
     2    13     8    1
     3    12     7    1
     4     8     7   ar
     5     8     9   ar
     6     7     6   ar
     7    22    19    1
     8     2     1    1
     9     2    18   am
    10     1    17    1
    11     1     4    2
    12    14     9    1
    13     9    10   ar
    14     4     6    1
    15     4     5    1
    16     6    11   ar
    17    23    19    1
    18    19    18    1
    19    19    21    1
    20    18    20    1
    21    10    11   ar
    22    10    15    1
    23    11    16    1
