@<TRIPOS>MOLECULE
GS-895-0.out
 23 23 0 0 0
SMALL
MULLIKEN_CHARGES
****
Gaussian 16 # wB97XD def2tzvp, opt=(calcfc, maxcycles=70, maxstep=10), freq=norama
@<TRIPOS>ATOM
      1 C          -1.8098   -0.4391   -0.0544 C.2     1  UNL1       -0.3642
      2 C          -0.5099    0.2827   -0.0416 C.2     1  UNL1        0.4980
      3 O          -0.3889    1.4973   -0.0537 O.2     1  UNL1       -0.4966
      4 C          -3.0098    0.1336    0.0151 C.2     1  UNL1        0.1518
      5 CL         -4.3992   -0.9301   -0.0207 Cl      1  UNL1       -0.1042
      6 C          -3.3769    1.5697    0.1249 C.3     1  UNL1       -0.3541
      7 H          -2.4842    2.1851    0.1647 H       1  UNL1        0.1572
      8 H          -3.9856    1.8597   -0.7338 H       1  UNL1        0.1499
      9 H          -3.9797    1.7268    1.0212 H       1  UNL1        0.1486
     10 H          -1.7677   -1.5184   -0.1234 H       1  UNL1        0.1537
     11 N           0.5501   -0.5766   -0.0188 N.am    1  UNL1       -0.2687
     12 C           1.9257   -0.2947   -0.0056 C.ar    1  UNL1        0.2970
     13 C           2.7912   -1.3897    0.0468 C.ar    1  UNL1       -0.2962
     14 C           4.1608   -1.2023    0.0591 C.ar    1  UNL1       -0.0990
     15 C           4.6937    0.0795    0.0199 C.ar    1  UNL1       -0.1867
     16 C           3.8346    1.1651   -0.0318 C.ar    1  UNL1       -0.1077
     17 C           2.4569    0.9933   -0.0450 C.ar    1  UNL1       -0.2879
     18 H           0.3249   -1.5572    0.0007 H       1  UNL1        0.2623
     19 H           2.3850   -2.3941    0.0777 H       1  UNL1        0.1455
     20 H           4.8142   -2.0644    0.0996 H       1  UNL1        0.1467
     21 H           5.7656    0.2276    0.0295 H       1  UNL1        0.1438
     22 H           4.2354    2.1705   -0.0631 H       1  UNL1        0.1448
     23 H           1.7991    1.8452   -0.0851 H       1  UNL1        0.1661
@<TRIPOS>BOND
     1     8     6    1
     2    10     1    1
     3    23    17    1
     4    22    16    1
     5     1     2    1
     6     1     4    2
     7     3     2    2
     8    17    16   ar
     9    17    12   ar
    10     2    11   am
    11    16    15   ar
    12     5     4    1
    13    11    12    1
    14    11    18    1
    15    12    13   ar
    16     4     6    1
    17    15    21    1
    18    15    14   ar
    19    13    14   ar
    20    13    19    1
    21    14    20    1
    22     6     7    1
    23     6     9    1
