@<TRIPOS>MOLECULE
GS-860-0.out
 15 14 0 0 0
SMALL
MULLIKEN_CHARGES
****
Gaussian 16 # wB97XD def2tzvp, opt=(calcfc, maxcycles=70, maxstep=10), freq=norama
@<TRIPOS>ATOM
      1 C          -0.2833    0.2510   -0.0000 C.2     1  UNL1       -0.1480
      2 C           1.0755   -0.3730   -0.0000 C.2     1  UNL1        0.4556
      3 O           1.2980   -1.5608    0.0000 O.2     1  UNL1       -0.4339
      4 C          -1.2918   -0.6149   -0.0000 C.2     1  UNL1       -0.0201
      5 CL         -2.9553   -0.1740    0.0000 Cl      1  UNL1       -0.0760
      6 H          -1.1289   -1.6825   -0.0000 H       1  UNL1        0.1843
      7 C          -0.4047    1.7408    0.0000 C.3     1  UNL1       -0.3354
      8 H           0.0848    2.1643   -0.8779 H       1  UNL1        0.1429
      9 H          -1.4478    2.0477   -0.0000 H       1  UNL1        0.1306
     10 H           0.0847    2.1643    0.8779 H       1  UNL1        0.1429
     11 O           2.0331    0.5495   -0.0000 O.3     1  UNL1       -0.2702
     12 C           3.3798    0.0714    0.0000 C.3     1  UNL1       -0.2041
     13 H           4.0062    0.9582   -0.0000 H       1  UNL1        0.1487
     14 H           3.5700   -0.5275    0.8897 H       1  UNL1        0.1414
     15 H           3.5700   -0.5275   -0.8897 H       1  UNL1        0.1414
@<TRIPOS>BOND
     1    15    12    1
     2     8     7    1
     3     9     7    1
     4    13    12    1
     5     1     2    1
     6     1     4    2
     7     1     7    1
     8     2     3    2
     9     2    11    1
    10     4     5    1
    11     4     6    1
    12     7    10    1
    13    11    12    1
    14    12    14    1
