@<TRIPOS>MOLECULE
GS-889-0.out
 11 10 0 0 0
SMALL
MULLIKEN_CHARGES
****
Gaussian 16 # wB97XD def2tzvp, opt=(calcfc, maxcycles=70, maxstep=10), freq=norama
@<TRIPOS>ATOM
      1 C          -0.6654   -0.4675    0.0000 C.2     1  UNL1       -0.2153
      2 C          -1.9889    0.1496    0.0000 C.2     1  UNL1        0.1725
      3 O          -3.0122   -0.5002   -0.0000 O.2     1  UNL1       -0.3873
      4 C           0.4779    0.2230    0.0000 C.2     1  UNL1        0.1243
      5 CL          1.9675   -0.6777    0.0000 Cl      1  UNL1       -0.0831
      6 C           0.6866    1.6964   -0.0000 C.3     1  UNL1       -0.3208
      7 H          -0.2519    2.2437    0.0000 H       1  UNL1        0.1264
      8 H           1.2629    1.9849    0.8803 H       1  UNL1        0.1589
      9 H           1.2629    1.9849   -0.8803 H       1  UNL1        0.1589
     10 H          -0.6485   -1.5501   -0.0000 H       1  UNL1        0.1624
     11 H          -2.0373    1.2503    0.0000 H       1  UNL1        0.1031
@<TRIPOS>BOND
     1     9     6    1
     2     1     2    1
     3     1     4    2
     4     1    10    1
     5     2     3    2
     6     2    11    1
     7     4     5    1
     8     4     6    1
     9     6     7    1
    10     6     8    1
