@<TRIPOS>MOLECULE
GS-851-0.out
 10 9 0 0 0
SMALL
MULLIKEN_CHARGES
****
Gaussian 16 # wB97XD def2tzvp, opt=(calcfc, maxcycles=70, maxstep=10), freq=norama
@<TRIPOS>ATOM
      1 C           0.1684   -0.4484    0.0000 C.2     1  UNL1       -0.2466
      2 C           1.5580    0.0903    0.0000 C.2     1  UNL1        0.3472
      3 O           1.8040    1.2890    0.0000 O.2     1  UNL1       -0.4829
      4 C          -0.8533    0.3908   -0.0000 C.2     1  UNL1       -0.0299
      5 CL         -2.4949   -0.1245    0.0000 Cl      1  UNL1       -0.0749
      6 H          -0.7261    1.4644   -0.0000 H       1  UNL1        0.1868
      7 H           0.0150   -1.5202    0.0000 H       1  UNL1        0.1711
      8 N           2.5220   -0.8490    0.0000 N.am    1  UNL1       -0.4460
      9 H           3.4856   -0.5627   -0.0000 H       1  UNL1        0.2820
     10 H           2.3139   -1.8308   -0.0000 H       1  UNL1        0.2930
@<TRIPOS>BOND
     1    10     8    1
     2     6     4    1
     3     9     8    1
     4     1     2    1
     5     1     4    2
     6     1     7    1
     7     2     3    2
     8     2     8   am
     9     4     5    1
