@<TRIPOS>MOLECULE
GS-862-0.out
 19 18 0 0 0
SMALL
MULLIKEN_CHARGES
****
Gaussian 16 # wB97XD def2tzvp, opt=(calcfc, maxcycles=70, maxstep=10), freq=norama
@<TRIPOS>ATOM
      1 C           0.5056    0.5039    0.1546 C.2     1  UNL1       -0.1375
      2 C          -0.9515    0.6154   -0.2195 C.2     1  UNL1        0.3357
      3 O          -1.3344    1.6478   -0.7624 O.2     1  UNL1       -0.4972
      4 C           1.2360   -0.3840   -0.5018 C.2     1  UNL1       -0.0701
      5 CL          2.9520   -0.5645   -0.3176 Cl      1  UNL1       -0.1074
      6 H           0.8212   -1.0798   -1.2171 H       1  UNL1        0.1839
      7 C           0.9950    1.5021    1.1525 C.3     1  UNL1       -0.3438
      8 H           0.7311    2.5095    0.8274 H       1  UNL1        0.1471
      9 H           0.5122    1.3341    2.1184 H       1  UNL1        0.1471
     10 H           2.0725    1.4427    1.2867 H       1  UNL1        0.1326
     11 N          -1.7668   -0.4221    0.0442 N.am    1  UNL1       -0.1075
     12 C          -3.1497   -0.3681   -0.3896 C.3     1  UNL1       -0.2864
     13 C          -1.4244   -1.5647    0.8713 C.3     1  UNL1       -0.3022
     14 H          -3.2551    0.3630   -1.1850 H       1  UNL1        0.1482
     15 H          -3.4458   -1.3517   -0.7558 H       1  UNL1        0.1437
     16 H          -3.8068   -0.0921    0.4393 H       1  UNL1        0.1460
     17 H          -0.4601   -1.4251    1.3480 H       1  UNL1        0.1701
     18 H          -2.1827   -1.6818    1.6478 H       1  UNL1        0.1475
     19 H          -1.3957   -2.4787    0.2739 H       1  UNL1        0.1503
@<TRIPOS>BOND
     1     6     4    1
     2    14    12    1
     3     3     2    2
     4    15    12    1
     5     4     5    1
     6     4     1    2
     7    12    11    1
     8    12    16    1
     9     2    11   am
    10     2     1    1
    11    11    13    1
    12     1     7    1
    13    19    13    1
    14     8     7    1
    15    13    17    1
    16    13    18    1
    17     7    10    1
    18     7     9    1
