@<TRIPOS>MOLECULE
GS-87-0.out
 43 45 0 0 0
SMALL
MULLIKEN_CHARGES
****
Gaussian 16 # wb97xd def2tzvp opt=(calcfc, maxcycles=100, maxstep=10) freq=noraman
@<TRIPOS>ATOM
      1 C           0.3889   -0.5480   -0.2377 C.2     1  UNL1        0.0687
      2 C          -1.0460   -0.9375   -0.4724 C.2     1  UNL1        0.3168
      3 O          -1.3763   -1.8344   -1.2306 O.2     1  UNL1       -0.4685
      4 C           1.3377   -1.4779   -0.0532 C.2     1  UNL1        0.0722
      5 C           2.7701   -1.0875    0.0675 C.ar    1  UNL1        0.1223
      6 C           3.5019   -1.3983    1.2110 C.ar    1  UNL1       -0.2465
      7 C           4.8338   -1.0288    1.3190 C.ar    1  UNL1       -0.1521
      8 C           5.4593   -0.3617    0.2752 C.ar    1  UNL1       -0.1320
      9 C           4.7434   -0.0648   -0.8759 C.ar    1  UNL1       -0.1566
     10 C           3.4081   -0.4225   -0.9769 C.ar    1  UNL1       -0.2068
     11 H           3.0218   -1.9129    2.0347 H       1  UNL1        0.1522
     12 H           5.3842   -1.2628    2.2215 H       1  UNL1        0.1432
     13 H           6.5005   -0.0771    0.3576 H       1  UNL1        0.1450
     14 H           5.2252    0.4490   -1.6982 H       1  UNL1        0.1422
     15 H           2.8497   -0.1818   -1.8729 H       1  UNL1        0.1549
     16 C           1.0841   -2.9546    0.0381 C.3     1  UNL1       -0.3488
     17 H           1.6187   -3.3652    0.8967 H       1  UNL1        0.1367
     18 H           0.0307   -3.2022    0.1218 H       1  UNL1        0.1372
     19 H           1.4858   -3.4524   -0.8484 H       1  UNL1        0.1437
     20 C           0.6637    0.9163   -0.2088 C.ar    1  UNL1       -0.0095
     21 C           0.3312    1.7124   -1.3037 C.ar    1  UNL1       -0.1823
     22 C           0.5772    3.0758   -1.2873 C.ar    1  UNL1       -0.1650
     23 C           1.1482    3.6669   -0.1684 C.ar    1  UNL1       -0.1118
     24 C           1.4665    2.8868    0.9336 C.ar    1  UNL1       -0.1649
     25 C           1.2234    1.5216    0.9140 C.ar    1  UNL1       -0.1956
     26 H          -0.1142    1.2564   -2.1804 H       1  UNL1        0.1460
     27 H           0.3230    3.6784   -2.1501 H       1  UNL1        0.1430
     28 H           1.3393    4.7323   -0.1543 H       1  UNL1        0.1461
     29 H           1.9037    3.3415    1.8135 H       1  UNL1        0.1424
     30 H           1.4735    0.9148    1.7752 H       1  UNL1        0.1544
     31 N          -1.9310   -0.1794    0.2332 N.am    1  UNL1       -0.2366
     32 C          -3.3337   -0.2055    0.2328 C.ar    1  UNL1        0.3025
     33 C          -3.9827    0.7536    1.0133 C.ar    1  UNL1       -0.3097
     34 C          -5.3635    0.7957    1.0688 C.ar    1  UNL1       -0.1001
     35 C          -6.1228   -0.1163    0.3473 C.ar    1  UNL1       -0.1855
     36 C          -5.4779   -1.0681   -0.4257 C.ar    1  UNL1       -0.1153
     37 C          -4.0921   -1.1243   -0.4904 C.ar    1  UNL1       -0.2888
     38 H          -1.5207    0.5364    0.8117 H       1  UNL1        0.2655
     39 H          -3.3977    1.4696    1.5790 H       1  UNL1        0.1451
     40 H          -5.8478    1.5471    1.6795 H       1  UNL1        0.1462
     41 H          -7.2036   -0.0838    0.3896 H       1  UNL1        0.1434
     42 H          -6.0568   -1.7867   -0.9925 H       1  UNL1        0.1441
     43 H          -3.6002   -1.8694   -1.0934 H       1  UNL1        0.1624
@<TRIPOS>BOND
     1    26    21    1
     2    27    22    1
     3    15    10    1
     4    14     9    1
     5    21    22   ar
     6    21    20   ar
     7    22    23   ar
     8     3     2    2
     9    43    37    1
    10    42    36    1
    11    10     9   ar
    12    10     5   ar
    13     9     8   ar
    14    19    16    1
    15    37    36   ar
    16    37    32   ar
    17     2     1    1
    18     2    31   am
    19    36    35   ar
    20     1    20    1
    21     1     4    2
    22    20    25   ar
    23    23    28    1
    24    23    24   ar
    25     4    16    1
    26     4     5    1
    27    16    18    1
    28    16    17    1
    29     5     6   ar
    30    32    31    1
    31    32    33   ar
    32    31    38    1
    33     8    13    1
    34     8     7   ar
    35    35    41    1
    36    35    34   ar
    37    25    24   ar
    38    25    30    1
    39    24    29    1
    40    33    34   ar
    41    33    39    1
    42    34    40    1
    43     6     7   ar
    44     6    11    1
    45     7    12    1
