@<TRIPOS>MOLECULE
GS-800-0.out
 18 18 0 0 0
SMALL
MULLIKEN_CHARGES
****
Gaussian 16 # wB97XD def2tzvp, opt=(calcfc, maxcycles=70, maxstep=10), freq=norama
@<TRIPOS>ATOM
      1 C          -0.4775   -0.7271    0.2535 C.2     1  UNL1        0.0133
      2 C           0.8771   -0.7711    0.9415 C.2     1  UNL1        0.3509
      3 O           0.9473   -1.2748    2.0362 O.2     1  UNL1       -0.3476
      4 C          -1.2963    0.3140    0.3210 C.2     1  UNL1       -0.0508
      5 BR         -3.0017    0.3677   -0.4504 Br      1  UNL1        0.0209
      6 CL         -0.8150    1.7406    1.1550 Cl      1  UNL1       -0.0195
      7 CL         -0.8705   -2.1843   -0.5667 Cl      1  UNL1       -0.0289
      8 C           2.0433   -0.2287    0.2101 C.ar    1  UNL1        0.0349
      9 C           3.2959   -0.2702    0.8235 C.ar    1  UNL1       -0.2061
     10 C           4.4043    0.2279    0.1661 C.ar    1  UNL1       -0.1208
     11 C           4.2705    0.7683   -1.1080 C.ar    1  UNL1       -0.1141
     12 C           3.0283    0.8107   -1.7237 C.ar    1  UNL1       -0.1502
     13 C           1.9147    0.3144   -1.0667 C.ar    1  UNL1       -0.1760
     14 H           3.3845   -0.6943    1.8147 H       1  UNL1        0.1536
     15 H           5.3751    0.1970    0.6429 H       1  UNL1        0.1536
     16 H           5.1401    1.1577   -1.6219 H       1  UNL1        0.1558
     17 H           2.9264    1.2312   -2.7152 H       1  UNL1        0.1537
     18 H           0.9474    0.3518   -1.5513 H       1  UNL1        0.1774
@<TRIPOS>BOND
     1    17    12    1
     2    12    11   ar
     3    12    13   ar
     4    16    11    1
     5    18    13    1
     6    11    10   ar
     7    13     8   ar
     8     7     1    1
     9     5     4    1
    10    10    15    1
    11    10     9   ar
    12     8     9   ar
    13     8     2    1
    14     1     4    2
    15     1     2    1
    16     4     6    1
    17     9    14    1
    18     2     3    2
