@<TRIPOS>MOLECULE
GS-820-0.out
 25 25 0 0 0
SMALL
MULLIKEN_CHARGES
****
Gaussian 16 # wB97XD def2tzvp, opt=(calcfc, maxcycles=70, maxstep=10), freq=norama
@<TRIPOS>ATOM
      1 C          -1.6493    0.3157    0.0410 C.2     1  UNL1       -0.0160
      2 C          -1.5416   -1.1791    0.0809 C.2     1  UNL1        0.3503
      3 O          -2.1082   -1.8566    0.9032 O.2     1  UNL1       -0.4070
      4 C          -0.5380    1.0511    0.0200 C.2     1  UNL1        0.0262
      5 CL         -0.6406    2.7974   -0.0526 Cl      1  UNL1       -0.0991
      6 C           0.8488    0.5411    0.1005 C.ar    1  UNL1        0.2211
      7 C           1.7917    0.8775   -0.8680 C.ar    1  UNL1       -0.2367
      8 C           3.0762    0.3661   -0.7978 C.ar    1  UNL1       -0.1365
      9 C           3.4375   -0.4755    0.2465 C.ar    1  UNL1       -0.1436
     10 C           2.5083   -0.8000    1.2227 C.ar    1  UNL1       -0.1290
     11 C           1.2201   -0.2912    1.1528 C.ar    1  UNL1       -0.2436
     12 H           1.5139    1.5322   -1.6844 H       1  UNL1        0.1523
     13 H           3.7985    0.6238   -1.5618 H       1  UNL1        0.1473
     14 H           4.4433   -0.8718    0.3006 H       1  UNL1        0.1486
     15 H           2.7856   -1.4459    2.0459 H       1  UNL1        0.1485
     16 H           0.4991   -0.5367    1.9228 H       1  UNL1        0.1632
     17 C          -3.0563    0.8246    0.0850 C.3     1  UNL1       -0.3535
     18 H          -3.5753    0.3865    0.9387 H       1  UNL1        0.1479
     19 H          -3.0921    1.9070    0.1657 H       1  UNL1        0.1358
     20 H          -3.5972    0.5230   -0.8150 H       1  UNL1        0.1488
     21 O          -0.8052   -1.6729   -0.9054 O.3     1  UNL1       -0.2627
     22 C          -0.5943   -3.0874   -0.8971 C.3     1  UNL1       -0.2019
     23 H           0.0189   -3.2971   -1.7681 H       1  UNL1        0.1507
     24 H          -0.0733   -3.3824    0.0134 H       1  UNL1        0.1441
     25 H          -1.5441   -3.6159   -0.9637 H       1  UNL1        0.1447
@<TRIPOS>BOND
     1    23    22    1
     2    12     7    1
     3    13     8    1
     4    25    22    1
     5    21    22    1
     6    21     2    1
     7    22    24    1
     8     7     8   ar
     9     7     6   ar
    10    20    17    1
    11     8     9   ar
    12     5     4    1
    13     4     1    2
    14     4     6    1
    15     1     2    1
    16     1    17    1
    17     2     3    2
    18    17    19    1
    19    17    18    1
    20     6    11   ar
    21     9    14    1
    22     9    10   ar
    23    11    10   ar
    24    11    16    1
    25    10    15    1
