@<TRIPOS>MOLECULE
GS-919-0.out
 23 23 0 0 0
SMALL
MULLIKEN_CHARGES
****
Gaussian 16 # wB97XD def2tzvp, opt=(calcfc, maxcycles=70, maxstep=10), freq=norama
@<TRIPOS>ATOM
      1 C          -1.6128   -0.1330   -0.1670 C.2     1  UNL1       -0.1146
      2 C          -0.2309    0.4586   -0.3032 C.2     1  UNL1        0.4580
      3 O          -0.0688    1.5770   -0.7548 O.2     1  UNL1       -0.4590
      4 C          -2.6721    0.5908    0.2017 C.2     1  UNL1        0.0867
      5 CL         -4.2378   -0.1479    0.2851 Cl      1  UNL1       -0.0724
      6 C          -2.6814    2.0303    0.5931 C.3     1  UNL1       -0.3562
      7 H          -1.6763    2.4311    0.6669 H       1  UNL1        0.1510
      8 H          -3.2353    2.6090   -0.1483 H       1  UNL1        0.1559
      9 H          -3.1933    2.1376    1.5499 H       1  UNL1        0.1504
     10 CL         -1.7456   -1.8253   -0.5310 Cl      1  UNL1       -0.0765
     11 N           0.7648   -0.3554    0.1192 N.am    1  UNL1       -0.2661
     12 C           2.1544   -0.1385    0.1005 C.ar    1  UNL1        0.3060
     13 C           2.9586   -1.1960    0.5280 C.ar    1  UNL1       -0.2955
     14 C           4.3348   -1.0656    0.5452 C.ar    1  UNL1       -0.1006
     15 C           4.9316    0.1194    0.1355 C.ar    1  UNL1       -0.1816
     16 C           4.1312    1.1678   -0.2879 C.ar    1  UNL1       -0.1119
     17 C           2.7477    1.0532   -0.3090 C.ar    1  UNL1       -0.2848
     18 H           0.4814   -1.2577    0.4662 H       1  UNL1        0.2583
     19 H           2.5002   -2.1246    0.8476 H       1  UNL1        0.1476
     20 H           4.9429   -1.8962    0.8799 H       1  UNL1        0.1479
     21 H           6.0087    0.2223    0.1479 H       1  UNL1        0.1449
     22 H           4.5832    2.0979   -0.6088 H       1  UNL1        0.1459
     23 H           2.1354    1.8761   -0.6381 H       1  UNL1        0.1663
@<TRIPOS>BOND
     1     3     2    2
     2    23    17    1
     3    22    16    1
     4    10     1    1
     5    17    16   ar
     6    17    12   ar
     7     2     1    1
     8     2    11   am
     9    16    15   ar
    10     1     4    2
    11     8     6    1
    12    12    11    1
    13    12    13   ar
    14    11    18    1
    15    15    21    1
    16    15    14   ar
    17     4     5    1
    18     4     6    1
    19    13    14   ar
    20    13    19    1
    21    14    20    1
    22     6     7    1
    23     6     9    1
