@<TRIPOS>MOLECULE
GS-983-1.out
 23 23 0 0 0
SMALL
MULLIKEN_CHARGES
****
Gaussian 16 # wB97XD def2tzvp, opt=(calcfc, maxcycles=70, maxstep=1), freq=noraman
@<TRIPOS>ATOM
      1 C           1.6802    0.8138    0.2264 C.2     1  UNL1       -0.1259
      2 C           0.2572    0.9037   -0.2730 C.2     1  UNL1        0.4281
      3 O          -0.0202    1.6440   -1.1976 O.2     1  UNL1       -0.4488
      4 C           2.4201   -0.2492   -0.0583 C.2     1  UNL1        0.0333
      5 CL          4.0753   -0.4161    0.4036 Cl      1  UNL1       -0.0490
      6 CL          1.8265   -1.6016   -0.9599 Cl      1  UNL1       -0.0440
      7 C           2.1534    2.0285    0.9616 C.3     1  UNL1       -0.3306
      8 H           2.0270    2.9070    0.3263 H       1  UNL1        0.1552
      9 H           1.5489    2.1810    1.8583 H       1  UNL1        0.1523
     10 H           3.1974    1.9494    1.2517 H       1  UNL1        0.1382
     11 N          -0.6236    0.1562    0.4315 N.am    1  UNL1       -0.2717
     12 C          -2.0135    0.0177    0.2599 C.ar    1  UNL1        0.3090
     13 C          -2.6775   -0.8248    1.1516 C.ar    1  UNL1       -0.2962
     14 C          -4.0430   -1.0154    1.0470 C.ar    1  UNL1       -0.0988
     15 C          -4.7668   -0.3693    0.0537 C.ar    1  UNL1       -0.1826
     16 C          -4.1045    0.4670   -0.8303 C.ar    1  UNL1       -0.1093
     17 C          -2.7339    0.6681   -0.7387 C.ar    1  UNL1       -0.2906
     18 H          -0.2262   -0.3955    1.1748 H       1  UNL1        0.2801
     19 H          -2.1191   -1.3316    1.9300 H       1  UNL1        0.1474
     20 H          -4.5428   -1.6728    1.7469 H       1  UNL1        0.1479
     21 H          -5.8355   -0.5177   -0.0286 H       1  UNL1        0.1449
     22 H          -4.6567    0.9765   -1.6099 H       1  UNL1        0.1461
     23 H          -2.2281    1.3205   -1.4314 H       1  UNL1        0.1651
@<TRIPOS>BOND
     1    22    16    1
     2    23    17    1
     3     3     2    2
     4     6     4    1
     5    16    17   ar
     6    16    15   ar
     7    17    12   ar
     8     2     1    1
     9     2    11   am
    10     4     1    2
    11     4     5    1
    12    21    15    1
    13    15    14   ar
    14     1     7    1
    15    12    11    1
    16    12    13   ar
    17     8     7    1
    18    11    18    1
    19     7    10    1
    20     7     9    1
    21    14    13   ar
    22    14    20    1
    23    13    19    1
