@<TRIPOS>MOLECULE
GS-934-0.out
 16 15 0 0 0
SMALL
MULLIKEN_CHARGES
****
Gaussian 16 # wB97XD def2tzvp, opt=(calcfc, maxcycles=70, maxstep=10), freq=norama
@<TRIPOS>ATOM
      1 C           0.0568    1.3096    0.1236 C.2     1  UNL1       -0.2490
      2 C           1.3997    0.7920    0.5510 C.2     1  UNL1        0.3388
      3 O           1.7268    0.9616    1.7204 O.2     1  UNL1       -0.4851
      4 C          -1.0322    0.5723    0.0092 C.2     1  UNL1        0.0294
      5 CL         -2.5793    1.2583   -0.3206 Cl      1  UNL1       -0.0471
      6 BR         -1.0307   -1.3047    0.1934 Br      1  UNL1       -0.0076
      7 H          -0.0257    2.3852    0.0230 H       1  UNL1        0.1949
      8 N           2.1760    0.1999   -0.3698 N.am    1  UNL1       -0.1104
      9 C           3.4635   -0.3463    0.0125 C.3     1  UNL1       -0.2745
     10 C           1.8276    0.0460   -1.7684 C.3     1  UNL1       -0.3018
     11 H           3.5875   -0.2641    1.0873 H       1  UNL1        0.1514
     12 H           3.5158   -1.3963   -0.2819 H       1  UNL1        0.1416
     13 H           4.2673    0.1972   -0.4885 H       1  UNL1        0.1464
     14 H           0.9255    0.6007   -2.0072 H       1  UNL1        0.1699
     15 H           2.6423    0.4262   -2.3869 H       1  UNL1        0.1498
     16 H           1.6712   -1.0084   -2.0074 H       1  UNL1        0.1535
@<TRIPOS>BOND
     1    15    10    1
     2    16    10    1
     3    14    10    1
     4    10     8    1
     5    13     9    1
     6     8     9    1
     7     8     2   am
     8     5     4    1
     9    12     9    1
    10     4     1    2
    11     4     6    1
    12     9    11    1
    13     7     1    1
    14     1     2    1
    15     2     3    2
