@<TRIPOS>MOLECULE
GS-993-0.out
 8 7 0 0 0
SMALL
MULLIKEN_CHARGES
****
Gaussian 16 # wB97XD def2tzvp, opt=(calcfc, maxcycles=70, maxstep=10), freq=norama
@<TRIPOS>ATOM
      1 C           0.6296    0.0601    0.0000 C.2     1  UNL1       -0.0087
      2 C           1.4479    1.2954    0.0000 C.2     1  UNL1        0.1380
      3 O           2.6506    1.2869   -0.0000 O.2     1  UNL1       -0.3391
      4 C          -0.7122    0.0728    0.0000 C.2     1  UNL1        0.0939
      5 CL         -1.6571   -1.3459   -0.0000 Cl      1  UNL1        0.0165
      6 CL         -1.6266    1.5227   -0.0000 Cl      1  UNL1        0.0082
      7 CL          1.5029   -1.4180    0.0000 Cl      1  UNL1       -0.0426
      8 H           0.8776    2.2340    0.0000 H       1  UNL1        0.1339
@<TRIPOS>BOND
     1     3     2    2
     2     5     4    1
     3     6     4    1
     4     4     1    2
     5     7     1    1
     6     2     1    1
     7     2     8    1
