@<TRIPOS>MOLECULE
GS-970-0.out
 11 10 0 0 0
SMALL
MULLIKEN_CHARGES
****
Gaussian 16 # wB97XD def2tzvp, opt=(calcfc, maxcycles=70, maxstep=10), freq=norama
@<TRIPOS>ATOM
      1 C           0.4250   -0.8506   -0.0002 C.2     1  UNL1       -0.2673
      2 C           1.8522   -0.4403   -0.0000 C.2     1  UNL1        0.3179
      3 O           2.6759   -1.3341    0.0006 O.2     1  UNL1       -0.3924
      4 C          -0.6956   -0.1323   -0.0000 C.2     1  UNL1        0.1343
      5 CL         -2.2286   -0.9242   -0.0002 Cl      1  UNL1       -0.0274
      6 CL         -0.8287    1.5759    0.0003 Cl      1  UNL1       -0.0035
      7 H           0.3009   -1.9262   -0.0003 H       1  UNL1        0.1704
      8 C           2.2748    0.9985   -0.0006 C.3     1  UNL1       -0.3908
      9 H           1.8839    1.5139    0.8776 H       1  UNL1        0.1593
     10 H           3.3611    1.0430   -0.0009 H       1  UNL1        0.1404
     11 H           1.8835    1.5133   -0.8790 H       1  UNL1        0.1593
@<TRIPOS>BOND
     1    11     8    1
     2    10     8    1
     3     8     2    1
     4     8     9    1
     5     7     1    1
     6     1     4    2
     7     1     2    1
     8     5     4    1
     9     4     6    1
    10     2     3    2
