@<TRIPOS>MOLECULE
GS-933-0.out
 13 12 0 0 0
SMALL
MULLIKEN_CHARGES
****
Gaussian 16 # wB97XD def2tzvp, opt=(calcfc, maxcycles=70, maxstep=10), freq=norama
@<TRIPOS>ATOM
      1 C          -0.2153    1.3207    0.0700 C.2     1  UNL1       -0.2432
      2 C          -1.6124    0.8552   -0.2026 C.2     1  UNL1        0.3947
      3 O          -2.2098    1.2768   -1.1835 O.2     1  UNL1       -0.4789
      4 C           0.8744    0.5719    0.0780 C.2     1  UNL1        0.0345
      5 CL          2.4411    1.2597    0.3002 Cl      1  UNL1       -0.0445
      6 BR          0.8882   -1.2955   -0.1861 Br      1  UNL1       -0.0035
      7 H          -0.1032    2.3925    0.1801 H       1  UNL1        0.1923
      8 N          -2.1498    0.0165    0.6893 N.am    1  UNL1       -0.3188
      9 C          -3.4892   -0.5104    0.5363 C.3     1  UNL1       -0.2494
     10 H          -1.5973   -0.2731    1.4769 H       1  UNL1        0.2846
     11 H          -3.7147   -1.1384    1.3940 H       1  UNL1        0.1509
     12 H          -4.2176    0.2993    0.4860 H       1  UNL1        0.1403
     13 H          -3.5703   -1.1068   -0.3736 H       1  UNL1        0.1410
@<TRIPOS>BOND
     1     3     2    2
     2    13     9    1
     3     2     1    1
     4     2     8   am
     5     6     4    1
     6     1     4    2
     7     1     7    1
     8     4     5    1
     9    12     9    1
    10     9     8    1
    11     9    11    1
    12     8    10    1
