@<TRIPOS>MOLECULE
GS-950-1.out
 16 15 0 0 0
SMALL
MULLIKEN_CHARGES
****
Gaussian 16 # wB97XD def2tzvp, opt=(calcfc, maxcycles=70, maxstep=1), freq=noraman
@<TRIPOS>ATOM
      1 C          -0.3890   -0.3177   -0.1743 C.2     1  UNL1       -0.1096
      2 C          -0.8490    1.0591   -0.5985 C.2     1  UNL1        0.3271
      3 O          -0.9891    1.2728   -1.7941 O.2     1  UNL1       -0.4633
      4 C           0.8837   -0.6503   -0.0079 C.2     1  UNL1       -0.0175
      5 CL          1.4373   -2.2331    0.3360 Cl      1  UNL1       -0.0182
      6 BR          2.2370    0.6557   -0.1319 Br      1  UNL1        0.0143
      7 BR         -1.7855   -1.5713   -0.0546 Br      1  UNL1        0.0074
      8 N          -1.1019    1.9459    0.3736 N.am    1  UNL1       -0.0950
      9 C          -1.5450    3.2832    0.0279 C.3     1  UNL1       -0.2748
     10 C          -0.9295    1.6959    1.7915 C.3     1  UNL1       -0.2989
     11 H          -1.6618    3.3589   -1.0480 H       1  UNL1        0.1543
     12 H          -2.4989    3.4919    0.5151 H       1  UNL1        0.1469
     13 H          -0.8099    4.0158    0.3674 H       1  UNL1        0.1460
     14 H          -0.6489    0.6638    1.9771 H       1  UNL1        0.1732
     15 H          -0.1523    2.3490    2.1935 H       1  UNL1        0.1550
     16 H          -1.8649    1.9023    2.3140 H       1  UNL1        0.1532
@<TRIPOS>BOND
     1     3     2    2
     2    11     9    1
     3     2     1    1
     4     2     8   am
     5     1     7    1
     6     1     4    2
     7     6     4    1
     8     4     5    1
     9     9    13    1
    10     9     8    1
    11     9    12    1
    12     8    10    1
    13    10    14    1
    14    10    15    1
    15    10    16    1
