@<TRIPOS>MOLECULE
GS-952-0.out
 18 18 0 0 0
SMALL
MULLIKEN_CHARGES
****
Gaussian 16 # wB97XD def2tzvp, opt=(calcfc, maxcycles=70, maxstep=10), freq=norama
@<TRIPOS>ATOM
      1 C           0.6931    0.4964    0.2939 C.2     1  UNL1       -0.0716
      2 C          -0.6027    0.3320    1.0649 C.2     1  UNL1        0.3715
      3 O          -0.5636    0.3646    2.2713 O.2     1  UNL1       -0.3482
      4 C           1.4518   -0.5150   -0.1027 C.2     1  UNL1       -0.0225
      5 CL          2.9504   -0.3459   -0.9108 Cl      1  UNL1       -0.0152
      6 BR          0.9061   -2.2928    0.2042 Br      1  UNL1        0.0175
      7 BR          1.1578    2.2949    0.0136 Br      1  UNL1        0.0141
      8 C          -1.8553    0.1793    0.2902 C.ar    1  UNL1        0.0352
      9 C          -3.0585    0.0513    0.9847 C.ar    1  UNL1       -0.2085
     10 C          -4.2447   -0.0969    0.2916 C.ar    1  UNL1       -0.1207
     11 C          -4.2380   -0.1170   -1.0985 C.ar    1  UNL1       -0.1148
     12 C          -3.0450    0.0112   -1.7946 C.ar    1  UNL1       -0.1525
     13 C          -1.8542    0.1586   -1.1030 C.ar    1  UNL1       -0.1805
     14 H          -3.0482    0.0688    2.0663 H       1  UNL1        0.1533
     15 H          -5.1772   -0.1974    0.8310 H       1  UNL1        0.1533
     16 H          -5.1681   -0.2332   -1.6401 H       1  UNL1        0.1555
     17 H          -3.0417   -0.0045   -2.8763 H       1  UNL1        0.1534
     18 H          -0.9261    0.2562   -1.6514 H       1  UNL1        0.1806
@<TRIPOS>BOND
     1    17    12    1
     2    12    13   ar
     3    12    11   ar
     4    18    13    1
     5    16    11    1
     6    13     8   ar
     7    11    10   ar
     8     5     4    1
     9     4     6    1
    10     4     1    2
    11     7     1    1
    12     8     9   ar
    13     8     2    1
    14    10    15    1
    15    10     9   ar
    16     1     2    1
    17     9    14    1
    18     2     3    2
