@<TRIPOS>MOLECULE
GS-94-1.out
 29 29 0 0 0
SMALL
MULLIKEN_CHARGES
****
Gaussian 16 # wB97XD def2tzvp, opt=(maxcycles=70, maxstep=1), freq=noraman, scrf=(
@<TRIPOS>ATOM
      1 C           0.7526    0.0060   -0.3755 C.2     1  UNL1       -0.3607
      2 C           2.1857   -0.4071   -0.3587 C.2     1  UNL1        0.3197
      3 O           2.5291   -1.5425   -0.6859 O.2     1  UNL1       -0.5094
      4 C          -0.2504   -0.6837    0.1735 C.2     1  UNL1        0.0971
      5 C          -1.6435   -0.1789    0.0566 C.ar    1  UNL1        0.1627
      6 C          -1.9252    1.1876    0.0928 C.ar    1  UNL1       -0.2273
      7 C          -3.2251    1.6510   -0.0335 C.ar    1  UNL1       -0.1572
      8 C          -4.2732    0.7561   -0.1948 C.ar    1  UNL1       -0.1342
      9 C          -4.0098   -0.6056   -0.2191 C.ar    1  UNL1       -0.1602
     10 C          -2.7098   -1.0682   -0.0857 C.ar    1  UNL1       -0.2107
     11 H          -1.1211    1.8968    0.2443 H       1  UNL1        0.1584
     12 H          -3.4203    2.7153    0.0045 H       1  UNL1        0.1434
     13 H          -5.2891    1.1173   -0.2917 H       1  UNL1        0.1455
     14 H          -4.8199   -1.3135   -0.3410 H       1  UNL1        0.1435
     15 H          -2.5252   -2.1344   -0.1080 H       1  UNL1        0.1486
     16 C          -0.0597   -1.9667    0.9314 C.3     1  UNL1       -0.3892
     17 H          -0.3980   -2.8185    0.3366 H       1  UNL1        0.1448
     18 H           0.9841   -2.1383    1.1793 H       1  UNL1        0.1417
     19 H          -0.6535   -1.9563    1.8469 H       1  UNL1        0.1445
     20 H           0.5341    0.9235   -0.9102 H       1  UNL1        0.1991
     21 N           3.0813    0.5455   -0.0156 N.am    1  UNL1       -0.0976
     22 C           4.5017    0.2837   -0.1171 C.3     1  UNL1       -0.2837
     23 C           2.7222    1.8551    0.4909 C.3     1  UNL1       -0.3033
     24 H           4.9508    0.1936    0.8756 H       1  UNL1        0.1412
     25 H           4.6617   -0.6398   -0.6647 H       1  UNL1        0.1465
     26 H           4.9880    1.1083   -0.6425 H       1  UNL1        0.1392
     27 H           1.6902    1.8717    0.8294 H       1  UNL1        0.1672
     28 H           3.3595    2.0938    1.3441 H       1  UNL1        0.1435
     29 H           2.8632    2.6267   -0.2709 H       1  UNL1        0.1469
@<TRIPOS>BOND
     1    20     1    1
     2     3     2    2
     3    25    22    1
     4    26    22    1
     5     1     2    1
     6     1     4    2
     7     2    21   am
     8    14     9    1
     9    13     8    1
    10    29    23    1
    11     9     8   ar
    12     9    10   ar
    13     8     7   ar
    14    22    21    1
    15    22    24    1
    16    15    10    1
    17    10     5   ar
    18     7    12    1
    19     7     6   ar
    20    21    23    1
    21     5     6   ar
    22     5     4    1
    23     6    11    1
    24     4    16    1
    25    17    16    1
    26    23    27    1
    27    23    28    1
    28    16    18    1
    29    16    19    1
