@<TRIPOS>MOLECULE
GS-921-0.out
 18 18 0 0 0
SMALL
MULLIKEN_CHARGES
****
Gaussian 16 # wB97XD def2tzvp, opt=(calcfc, maxcycles=70, maxstep=10), freq=norama
@<TRIPOS>ATOM
      1 C           0.0252    0.5828    0.0000 C.2     1  UNL1       -0.0809
      2 C           0.3483    2.0287    0.0001 C.2     1  UNL1        0.1732
      3 O          -0.5003    2.8865    0.0001 O.2     1  UNL1       -0.3573
      4 C           0.9899   -0.3439   -0.0000 C.2     1  UNL1        0.0529
      5 CL          0.6412   -2.0235   -0.0001 Cl      1  UNL1       -0.0037
      6 BR          2.8384    0.0220   -0.0000 Br      1  UNL1        0.0161
      7 C          -1.4145    0.2098    0.0000 C.ar    1  UNL1        0.1532
      8 C          -2.0942    0.0484    1.2020 C.ar    1  UNL1       -0.1954
      9 C          -3.4413   -0.2804    1.2009 C.ar    1  UNL1       -0.1498
     10 C          -4.1164   -0.4459   -0.0000 C.ar    1  UNL1       -0.1221
     11 C          -3.4413   -0.2801   -1.2009 C.ar    1  UNL1       -0.1498
     12 C          -2.0942    0.0488   -1.2020 C.ar    1  UNL1       -0.1954
     13 H          -1.5657    0.1767    2.1386 H       1  UNL1        0.1488
     14 H          -3.9636   -0.4079    2.1404 H       1  UNL1        0.1466
     15 H          -5.1678   -0.7033   -0.0000 H       1  UNL1        0.1487
     16 H          -3.9638   -0.4072   -2.1404 H       1  UNL1        0.1466
     17 H          -1.5658    0.1773   -2.1386 H       1  UNL1        0.1488
     18 H           1.4161    2.2919    0.0001 H       1  UNL1        0.1197
@<TRIPOS>BOND
     1    16    11    1
     2    17    12    1
     3    12    11   ar
     4    12     7   ar
     5    11    10   ar
     6     5     4    1
     7     4     6    1
     8     4     1    2
     9    15    10    1
    10    10     9   ar
    11     7     1    1
    12     7     8   ar
    13     1     2    1
    14    18     2    1
    15     2     3    2
    16     9     8   ar
    17     9    14    1
    18     8    13    1
