@<TRIPOS>MOLECULE
GS-992-0.out
 18 18 0 0 0
SMALL
MULLIKEN_CHARGES
****
Gaussian 16 # wB97XD def2tzvp, opt=(calcfc, maxcycles=70, maxstep=10), freq=norama
@<TRIPOS>ATOM
      1 C          -0.8212   -0.1273    0.3166 C.2     1  UNL1       -0.0932
      2 C           0.4882   -0.1677    1.0806 C.2     1  UNL1        0.3617
      3 O           0.4520   -0.3053    2.2797 O.2     1  UNL1       -0.3489
      4 C          -1.4603    0.9976    0.0273 C.2     1  UNL1        0.0331
      5 CL         -2.9728    1.0840   -0.7689 Cl      1  UNL1       -0.0122
      6 CL         -0.7756    2.5219    0.4494 Cl      1  UNL1       -0.0167
      7 BR         -1.4875   -1.8259   -0.1183 Br      1  UNL1        0.0170
      8 C           1.7464   -0.0720    0.3059 C.ar    1  UNL1        0.0367
      9 C           2.9598   -0.1356    0.9919 C.ar    1  UNL1       -0.2068
     10 C           4.1518   -0.0468    0.2988 C.ar    1  UNL1       -0.1215
     11 C           4.1410    0.1050   -1.0832 C.ar    1  UNL1       -0.1138
     12 C           2.9381    0.1681   -1.7709 C.ar    1  UNL1       -0.1534
     13 C           1.7414    0.0803   -1.0791 C.ar    1  UNL1       -0.1773
     14 H           2.9527   -0.2542    2.0671 H       1  UNL1        0.1533
     15 H           5.0921   -0.0955    0.8318 H       1  UNL1        0.1533
     16 H           5.0757    0.1744   -1.6248 H       1  UNL1        0.1556
     17 H           2.9315    0.2861   -2.8463 H       1  UNL1        0.1534
     18 H           0.8059    0.1313   -1.6211 H       1  UNL1        0.1798
@<TRIPOS>BOND
     1    17    12    1
     2    12    11   ar
     3    12    13   ar
     4    16    11    1
     5    18    13    1
     6    11    10   ar
     7    13     8   ar
     8     5     4    1
     9     7     1    1
    10     4     1    2
    11     4     6    1
    12    10    15    1
    13    10     9   ar
    14     8     9   ar
    15     8     2    1
    16     1     2    1
    17     9    14    1
    18     2     3    2
