@<TRIPOS>MOLECULE
GS-942-0.out
 19 18 0 0 0
SMALL
MULLIKEN_CHARGES
****
Gaussian 16 # wB97XD def2tzvp, opt=(calcfc, maxcycles=70, maxstep=10), freq=norama
@<TRIPOS>ATOM
      1 C          -0.0517    1.1146   -0.2111 C.2     1  UNL1       -0.1120
      2 C          -1.3545    0.4625   -0.6121 C.2     1  UNL1        0.3387
      3 O          -1.6273    0.4071   -1.8056 O.2     1  UNL1       -0.4829
      4 C           1.0370    0.3815   -0.0323 C.2     1  UNL1       -0.0198
      5 CL          2.5970    1.0432    0.3021 Cl      1  UNL1       -0.0578
      6 BR          1.0192   -1.5081   -0.1140 Br      1  UNL1       -0.0224
      7 C          -0.1069    2.6097   -0.1562 C.3     1  UNL1       -0.3271
      8 H          -0.4621    2.9944   -1.1141 H       1  UNL1        0.1548
      9 H          -0.8209    2.9262    0.6079 H       1  UNL1        0.1538
     10 H           0.8616    3.0493    0.0652 H       1  UNL1        0.1389
     11 N          -2.1678    0.0362    0.3674 N.am    1  UNL1       -0.1012
     12 C          -3.4372   -0.5815    0.0381 C.3     1  UNL1       -0.2754
     13 C          -1.8525    0.0920    1.7808 C.3     1  UNL1       -0.3017
     14 H          -3.5827   -0.5573   -1.0368 H       1  UNL1        0.1521
     15 H          -3.4474   -1.6179    0.3831 H       1  UNL1        0.1423
     16 H          -4.2496   -0.0423    0.5287 H       1  UNL1        0.1437
     17 H          -0.9210    0.6230    1.9517 H       1  UNL1        0.1730
     18 H          -2.6529    0.6078    2.3141 H       1  UNL1        0.1511
     19 H          -1.7585   -0.9182    2.1859 H       1  UNL1        0.1518
@<TRIPOS>BOND
     1     3     2    2
     2     8     7    1
     3    14    12    1
     4     2     1    1
     5     2    11   am
     6     1     7    1
     7     1     4    2
     8     7    10    1
     9     7     9    1
    10     6     4    1
    11     4     5    1
    12    12    11    1
    13    12    15    1
    14    12    16    1
    15    11    13    1
    16    13    17    1
    17    13    19    1
    18    13    18    1
