@<TRIPOS>MOLECULE
GS-945-0.out
 8 7 0 0 0
SMALL
MULLIKEN_CHARGES
****
Gaussian 16 # wB97XD def2tzvp, opt=(calcfc, maxcycles=70, maxstep=10), freq=norama
@<TRIPOS>ATOM
      1 C           0.5071    0.4127    0.0000 C.2     1  UNL1       -0.0712
      2 C           0.4675    1.8947    0.0000 C.2     1  UNL1        0.1429
      3 O           1.4513    2.5862   -0.0000 O.2     1  UNL1       -0.3377
      4 C          -0.5934   -0.3524   -0.0000 C.2     1  UNL1        0.0771
      5 CL         -0.5531   -2.0564   -0.0000 Cl      1  UNL1        0.0166
      6 BR         -2.3377    0.3531    0.0000 Br      1  UNL1        0.0377
      7 BR          2.2248   -0.3472    0.0000 Br      1  UNL1       -0.0056
      8 H          -0.5404    2.3320    0.0000 H       1  UNL1        0.1402
@<TRIPOS>BOND
     1     3     2    2
     2     1     2    1
     3     1     4    2
     4     1     7    1
     5     2     8    1
     6     4     5    1
     7     4     6    1
