@<TRIPOS>MOLECULE
GS-986-0.out
 11 10 0 0 0
SMALL
MULLIKEN_CHARGES
****
Gaussian 16 # wB97XD def2tzvp, opt=(calcfc, maxcycles=70, maxstep=10), freq=norama
@<TRIPOS>ATOM
      1 C          -0.1272    0.2297   -0.0572 C.2     1  UNL1       -0.0262
      2 C          -0.2745    1.7373   -0.1681 C.2     1  UNL1        0.2172
      3 O          -0.3388    2.2469   -1.2558 O.2     1  UNL1       -0.3335
      4 C           1.0454   -0.3864   -0.0115 C.2     1  UNL1        0.0294
      5 CL          1.2554   -2.0828    0.0857 Cl      1  UNL1       -0.0141
      6 CL          2.5100    0.5232   -0.0469 Cl      1  UNL1       -0.0190
      7 BR         -1.7673   -0.6797   -0.0087 Br      1  UNL1        0.0132
      8 C          -0.3617    2.4825    1.1253 C.3     1  UNL1       -0.3423
      9 H           0.5561    2.3222    1.6954 H       1  UNL1        0.1610
     10 H          -0.5101    3.5437    0.9420 H       1  UNL1        0.1482
     11 H          -1.1835    2.0829    1.7231 H       1  UNL1        0.1661
@<TRIPOS>BOND
     1     3     2    2
     2     2     1    1
     3     2     8    1
     4     1     4    2
     5     1     7    1
     6     6     4    1
     7     4     5    1
     8    10     8    1
     9     8     9    1
    10     8    11    1
