@<TRIPOS>MOLECULE
GS-999-0.out
 20 20 0 0 0
SMALL
MULLIKEN_CHARGES
****
Gaussian 16 # wB97XD def2tzvp, opt=(calcfc, maxcycles=70, maxstep=10), freq=norama
@<TRIPOS>ATOM
      1 C          -1.5480   -0.5733   -0.0003 C.2     1  UNL1       -0.0683
      2 C          -0.1168   -0.6668    0.4857 C.2     1  UNL1        0.4194
      3 O           0.1319   -1.2225    1.5354 O.2     1  UNL1       -0.4287
      4 C          -2.2837    0.5303    0.0849 C.2     1  UNL1        0.0175
      5 CL         -3.9267    0.6177   -0.3844 Cl      1  UNL1       -0.0121
      6 CL         -1.6283    1.9917    0.7133 Cl      1  UNL1       -0.0130
      7 CL         -2.1832   -2.0596   -0.5828 Cl      1  UNL1       -0.0330
      8 N           0.7755   -0.1189   -0.3653 N.am    1  UNL1       -0.2673
      9 C           2.1753   -0.0194   -0.2376 C.ar    1  UNL1        0.3100
     10 C           2.8519    0.6553   -1.2530 C.ar    1  UNL1       -0.2918
     11 C           4.2267    0.7933   -1.2011 C.ar    1  UNL1       -0.0986
     12 C           4.9442    0.2623   -0.1376 C.ar    1  UNL1       -0.1793
     13 C           4.2680   -0.4073    0.8692 C.ar    1  UNL1       -0.1093
     14 C           2.8882   -0.5553    0.8310 C.ar    1  UNL1       -0.2885
     15 H           0.3897    0.2921   -1.2007 H       1  UNL1        0.2847
     16 H           2.2972    1.0735   -2.0848 H       1  UNL1        0.1490
     17 H           4.7383    1.3196   -1.9966 H       1  UNL1        0.1490
     18 H           6.0201    0.3705   -0.0962 H       1  UNL1        0.1461
     19 H           4.8160   -0.8264    1.7035 H       1  UNL1        0.1474
     20 H           2.3716   -1.0790    1.6184 H       1  UNL1        0.1668
@<TRIPOS>BOND
     1    16    10    1
     2    17    11    1
     3    10    11   ar
     4    10     9   ar
     5    11    12   ar
     6    15     8    1
     7     7     1    1
     8     5     4    1
     9     8     9    1
    10     8     2   am
    11     9    14   ar
    12    12    18    1
    13    12    13   ar
    14     1     4    2
    15     1     2    1
    16     4     6    1
    17     2     3    2
    18    14    13   ar
    19    14    20    1
    20    13    19    1
