@<TRIPOS>MOLECULE
GS-996-0.out
 12 11 0 0 0
SMALL
MULLIKEN_CHARGES
****
Gaussian 16 # wB97XD def2tzvp, opt=(calcfc, maxcycles=70, maxstep=10), freq=norama
@<TRIPOS>ATOM
      1 C          -0.0241    0.3784    0.1088 C.2     1  UNL1       -0.0631
      2 C          -1.3452   -0.3271    0.2181 C.2     1  UNL1        0.4377
      3 O          -1.5131   -1.3424    0.8388 O.2     1  UNL1       -0.3835
      4 C           1.1433   -0.2589   -0.0200 C.2     1  UNL1        0.0530
      5 CL          2.6380    0.5687   -0.1234 Cl      1  UNL1       -0.0052
      6 CL          1.2822   -1.9610   -0.1368 Cl      1  UNL1        0.0060
      7 CL         -0.0856    2.0981    0.1668 Cl      1  UNL1       -0.0370
      8 O          -2.2885    0.3192   -0.4432 O.3     1  UNL1       -0.2614
      9 C          -3.6053   -0.2433   -0.3821 C.3     1  UNL1       -0.1951
     10 H          -4.2326    0.4224   -0.9658 H       1  UNL1        0.1540
     11 H          -3.6066   -1.2441   -0.8109 H       1  UNL1        0.1473
     12 H          -3.9478   -0.2840    0.6507 H       1  UNL1        0.1473
@<TRIPOS>BOND
     1    10     9    1
     2    11     9    1
     3     8     9    1
     4     8     2    1
     5     9    12    1
     6     6     4    1
     7     5     4    1
     8     4     1    2
     9     1     7    1
    10     1     2    1
    11     2     3    2
