@<TRIPOS>MOLECULE
GS-913-0.out
 11 10 0 0 0
SMALL
MULLIKEN_CHARGES
****
Gaussian 16 # wB97XD def2tzvp, opt=(calcfc, maxcycles=70, maxstep=10), freq=norama
@<TRIPOS>ATOM
      1 C          -0.5062    0.3061   -0.0000 C.2     1  UNL1        0.0075
      2 C          -1.9649    0.0668   -0.0001 C.2     1  UNL1        0.1436
      3 O          -2.4902   -1.0187    0.0002 O.2     1  UNL1       -0.3582
      4 C           0.4153   -0.6705   -0.0001 C.2     1  UNL1        0.0549
      5 CL          2.0903   -0.2662    0.0001 Cl      1  UNL1       -0.0429
      6 C           0.1135   -2.1345   -0.0001 C.3     1  UNL1       -0.3078
      7 H          -0.4781   -2.3990   -0.8765 H       1  UNL1        0.1557
      8 H           1.0353   -2.7091   -0.0006 H       1  UNL1        0.1492
      9 H          -0.4773   -2.3992    0.8768 H       1  UNL1        0.1557
     10 CL         -0.0868    1.9872   -0.0000 Cl      1  UNL1       -0.0806
     11 H          -2.5641    0.9932   -0.0003 H       1  UNL1        0.1231
@<TRIPOS>BOND
     1     7     6    1
     2     8     6    1
     3    11     2    1
     4     6     4    1
     5     6     9    1
     6     2     1    1
     7     2     3    2
     8     4     1    2
     9     4     5    1
    10     1    10    1
