@<TRIPOS>MOLECULE
GS-918-0.out
 19 18 0 0 0
SMALL
MULLIKEN_CHARGES
****
Gaussian 16 # wB97XD def2tzvp, opt=(calcfc, maxcycles=70, maxstep=10), freq=norama
@<TRIPOS>ATOM
      1 C          -0.3375    0.3717   -0.1480 C.2     1  UNL1       -0.0442
      2 C           1.1136    0.3110   -0.5650 C.2     1  UNL1        0.2870
      3 O           1.4237    0.7521   -1.6639 O.2     1  UNL1       -0.4709
      4 C          -1.1582   -0.6682   -0.2299 C.2     1  UNL1        0.0333
      5 CL         -2.8451   -0.5029    0.1380 Cl      1  UNL1       -0.0860
      6 C          -0.7453   -2.0473   -0.6231 C.3     1  UNL1       -0.3632
      7 H           0.3149   -2.0893   -0.8663 H       1  UNL1        0.1544
      8 H          -0.9451   -2.7439    0.1928 H       1  UNL1        0.1561
      9 H          -1.3160   -2.3752   -1.4928 H       1  UNL1        0.1602
     10 CL         -0.8407    1.9585    0.3154 Cl      1  UNL1       -0.0708
     11 N           1.9833   -0.2230    0.3071 N.am    1  UNL1       -0.1074
     12 C           3.3814   -0.3506   -0.0585 C.3     1  UNL1       -0.2778
     13 C           1.6478   -0.6864    1.6403 C.3     1  UNL1       -0.2996
     14 H           3.5066   -0.1012   -1.1069 H       1  UNL1        0.1527
     15 H           3.9929    0.3197    0.5493 H       1  UNL1        0.1497
     16 H           3.7088   -1.3769    0.1156 H       1  UNL1        0.1442
     17 H           0.6313   -0.4134    1.9048 H       1  UNL1        0.1732
     18 H           1.7519   -1.7719    1.7020 H       1  UNL1        0.1554
     19 H           2.3289   -0.2302    2.3602 H       1  UNL1        0.1537
@<TRIPOS>BOND
     1     3     2    2
     2     9     6    1
     3    14    12    1
     4     7     6    1
     5     6     4    1
     6     6     8    1
     7     2     1    1
     8     2    11   am
     9     4     1    2
    10     4     5    1
    11     1    10    1
    12    12    16    1
    13    12    11    1
    14    12    15    1
    15    11    13    1
    16    13    18    1
    17    13    17    1
    18    13    19    1
