@<TRIPOS>MOLECULE
GS-972-0.out
 12 11 0 0 0
SMALL
MULLIKEN_CHARGES
****
Gaussian 16 # wB97XD def2tzvp, opt=(calcfc, maxcycles=70, maxstep=10), freq=norama
@<TRIPOS>ATOM
      1 C          -0.0889   -0.7003    0.0000 C.2     1  UNL1       -0.2969
      2 C          -1.3775    0.0214    0.0000 C.2     1  UNL1        0.4578
      3 O          -1.5426    1.2155    0.0000 O.2     1  UNL1       -0.4098
      4 C           1.1205   -0.1482    0.0000 C.2     1  UNL1        0.1167
      5 CL          2.5273   -1.1425    0.0000 Cl      1  UNL1       -0.0243
      6 CL          1.4640    1.5255   -0.0000 Cl      1  UNL1        0.0080
      7 H          -0.1475   -1.7792    0.0000 H       1  UNL1        0.1830
      8 O          -2.3753   -0.8640   -0.0000 O.3     1  UNL1       -0.2744
      9 C          -3.6994   -0.3262   -0.0000 C.3     1  UNL1       -0.1934
     10 H          -4.3644   -1.1844   -0.0000 H       1  UNL1        0.1502
     11 H          -3.8632    0.2805    0.8898 H       1  UNL1        0.1415
     12 H          -3.8632    0.2805   -0.8898 H       1  UNL1        0.1415
@<TRIPOS>BOND
     1    12     9    1
     2    10     9    1
     3     9     8    1
     4     9    11    1
     5     6     4    1
     6     8     2    1
     7     5     4    1
     8     4     1    2
     9     1     2    1
    10     1     7    1
    11     2     3    2
