@<TRIPOS>MOLECULE
GS-931-0.out
 10 9 0 0 0
SMALL
MULLIKEN_CHARGES
****
Gaussian 16 # wB97XD def2tzvp, opt=(calcfc, maxcycles=70, maxstep=10), freq=norama
@<TRIPOS>ATOM
      1 C          -0.9441    0.9255    0.0000 C.2     1  UNL1       -0.2315
      2 C          -2.1021   -0.0121    0.0000 C.2     1  UNL1        0.3576
      3 O          -2.0055   -1.2287    0.0001 O.2     1  UNL1       -0.4593
      4 C           0.3452    0.6105    0.0000 C.2     1  UNL1        0.0292
      5 CL          1.5366    1.8602    0.0000 Cl      1  UNL1       -0.0372
      6 BR          1.0818   -1.1126   -0.0000 Br      1  UNL1        0.0319
      7 H          -1.1738    1.9838    0.0000 H       1  UNL1        0.1764
      8 N          -3.2933    0.6190   -0.0001 N.am    1  UNL1       -0.4427
      9 H          -4.1345    0.0689   -0.0001 H       1  UNL1        0.2831
     10 H          -3.3757    1.6190   -0.0001 H       1  UNL1        0.2925
@<TRIPOS>BOND
     1    10     8    1
     2     9     8    1
     3     8     2   am
     4     6     4    1
     5     4     5    1
     6     4     1    2
     7     1     2    1
     8     1     7    1
     9     2     3    2
