@<TRIPOS>MOLECULE
GS-994-0.out
 11 10 0 0 0
SMALL
MULLIKEN_CHARGES
****
Gaussian 16 # wB97XD def2tzvp, opt=(calcfc, maxcycles=70, maxstep=10), freq=norama
@<TRIPOS>ATOM
      1 C           0.4183    0.2525   -0.0843 C.2     1  UNL1       -0.0357
      2 C           1.6082   -0.6760   -0.1037 C.2     1  UNL1        0.2800
      3 O           1.5379   -1.7455   -0.6559 O.2     1  UNL1       -0.3511
      4 C          -0.8554   -0.1452    0.0066 C.2     1  UNL1        0.0559
      5 CL         -2.1684    0.9552    0.0505 Cl      1  UNL1       -0.0082
      6 CL         -1.3302   -1.7844    0.1390 Cl      1  UNL1        0.0063
      7 CL          0.7932    1.9368   -0.1513 Cl      1  UNL1       -0.0467
      8 C           2.8582   -0.2022    0.5791 C.3     1  UNL1       -0.3770
      9 H           2.6327    0.2675    1.5367 H       1  UNL1        0.1621
     10 H           3.5234   -1.0509    0.7167 H       1  UNL1        0.1481
     11 H           3.3558    0.5446   -0.0426 H       1  UNL1        0.1663
@<TRIPOS>BOND
     1     3     2    2
     2     7     1    1
     3     2     1    1
     4     2     8    1
     5     1     4    2
     6    11     8    1
     7     4     5    1
     8     4     6    1
     9     8    10    1
    10     8     9    1
