@<TRIPOS>MOLECULE
GS-957-1.out
 13 12 0 0 0
SMALL
MULLIKEN_CHARGES
****
Gaussian 16 # wB97XD def2tzvp, opt=(calcfc, maxcycles=70, maxstep=1), freq=noraman
@<TRIPOS>ATOM
      1 C          -0.2160    0.8737    0.0623 C.2     1  UNL1       -0.0139
      2 C          -1.5622    0.2379    0.3344 C.2     1  UNL1        0.3690
      3 O          -2.0297    0.2453    1.4602 O.2     1  UNL1       -0.4513
      4 C           0.9219    0.1960   -0.0359 C.2     1  UNL1       -0.0434
      5 CL          2.4494    0.9340   -0.2656 Cl      1  UNL1       -0.0201
      6 BR          0.9536   -1.6812    0.1021 Br      1  UNL1        0.0175
      7 CL         -0.2695    2.5923   -0.0193 Cl      1  UNL1       -0.0395
      8 N          -2.1699   -0.2733   -0.7379 N.am    1  UNL1       -0.3002
      9 C          -3.4636   -0.9184   -0.6486 C.3     1  UNL1       -0.2513
     10 H          -1.6997   -0.2369   -1.6255 H       1  UNL1        0.2906
     11 H          -3.7672   -1.2230   -1.6463 H       1  UNL1        0.1538
     12 H          -3.4127   -1.7980   -0.0055 H       1  UNL1        0.1444
     13 H          -4.2062   -0.2316   -0.2423 H       1  UNL1        0.1444
@<TRIPOS>BOND
     1    11     9    1
     2    10     8    1
     3     8     9    1
     4     8     2   am
     5     9    13    1
     6     9    12    1
     7     5     4    1
     8     4     1    2
     9     4     6    1
    10     7     1    1
    11     1     2    1
    12     2     3    2
