@<TRIPOS>MOLECULE
GS-935-0.out
 20 20 0 0 0
SMALL
MULLIKEN_CHARGES
****
Gaussian 16 # wB97XD def2tzvp, opt=(calcfc, maxcycles=70, maxstep=10), freq=norama
@<TRIPOS>ATOM
      1 C           1.3966    1.3596    0.4254 C.2     1  UNL1       -0.2686
      2 C          -0.0297    1.3703   -0.0326 C.2     1  UNL1        0.4419
      3 O          -0.3940    2.2114   -0.8335 O.2     1  UNL1       -0.4526
      4 C           2.2758    0.3904    0.2326 C.2     1  UNL1        0.0398
      5 CL          3.9212    0.5576    0.7184 Cl      1  UNL1       -0.0388
      6 BR          1.8874   -1.2482   -0.6153 Br      1  UNL1        0.0016
      7 H           1.7381    2.2860    0.8708 H       1  UNL1        0.1944
      8 N          -0.8203    0.4338    0.5406 N.am    1  UNL1       -0.2825
      9 C          -2.1844    0.1664    0.3220 C.ar    1  UNL1        0.3123
     10 C          -2.9561    0.8324   -0.6269 C.ar    1  UNL1       -0.2933
     11 C          -4.2938    0.4931   -0.7763 C.ar    1  UNL1       -0.1064
     12 C          -4.8734   -0.4961    0.0016 C.ar    1  UNL1       -0.1834
     13 C          -4.0988   -1.1574    0.9453 C.ar    1  UNL1       -0.0968
     14 C          -2.7649   -0.8305    1.1063 C.ar    1  UNL1       -0.2989
     15 H          -0.3716   -0.1571    1.2221 H       1  UNL1        0.2792
     16 H          -2.5149    1.6037   -1.2365 H       1  UNL1        0.1648
     17 H          -4.8862    1.0157   -1.5167 H       1  UNL1        0.1464
     18 H          -5.9175   -0.7510   -0.1245 H       1  UNL1        0.1450
     19 H          -4.5336   -1.9335    1.5619 H       1  UNL1        0.1481
     20 H          -2.1667   -1.3509    1.8450 H       1  UNL1        0.1476
@<TRIPOS>BOND
     1    17    11    1
     2    16    10    1
     3     3     2    2
     4    11    10   ar
     5    11    12   ar
     6    10     9   ar
     7     6     4    1
     8    18    12    1
     9     2     1    1
    10     2     8   am
    11    12    13   ar
    12     4     1    2
    13     4     5    1
    14     9     8    1
    15     9    14   ar
    16     1     7    1
    17     8    15    1
    18    13    14   ar
    19    13    19    1
    20    14    20    1
