@<TRIPOS>MOLECULE
GS-988-1.out
 12 11 0 0 0
SMALL
MULLIKEN_CHARGES
****
Gaussian 16 # wB97XD def2tzvp, opt=(calcfc, maxcycles=70, maxstep=1), freq=noraman
@<TRIPOS>ATOM
      1 C          -0.0477   -0.1297    0.0861 C.2     1  UNL1       -0.0772
      2 C           1.4309   -0.2459    0.3337 C.2     1  UNL1        0.4174
      3 O           1.8916   -0.5565    1.3984 O.2     1  UNL1       -0.3773
      4 C          -0.6753    1.0380    0.0196 C.2     1  UNL1        0.0333
      5 CL         -2.3617    1.2147   -0.2013 Cl      1  UNL1       -0.0082
      6 CL          0.1920    2.5161    0.1773 Cl      1  UNL1       -0.0112
      7 BR         -0.9279   -1.7789   -0.0451 Br      1  UNL1        0.0200
      8 O           2.1227    0.0047   -0.7608 O.3     1  UNL1       -0.2501
      9 C           3.5516   -0.0751   -0.6439 C.3     1  UNL1       -0.2012
     10 H           3.9364    0.1543   -1.6321 H       1  UNL1        0.1556
     11 H           3.8462   -1.0782   -0.3405 H       1  UNL1        0.1497
     12 H           3.9068    0.6523    0.0841 H       1  UNL1        0.1493
@<TRIPOS>BOND
     1    10     9    1
     2     8     9    1
     3     8     2    1
     4     9    11    1
     5     9    12    1
     6     5     4    1
     7     7     1    1
     8     4     1    2
     9     4     6    1
    10     1     2    1
    11     2     3    2
