@<TRIPOS>MOLECULE
GS-927-0.out
 30 31 0 0 0
SMALL
MULLIKEN_CHARGES
****
Gaussian 16 # wB97XD def2tzvp, opt=(calcfc, maxcycles=70, maxstep=10), freq=norama
@<TRIPOS>ATOM
      1 C          -1.0134   -0.0622    0.2060 C.2     1  UNL1       -0.0876
      2 C           0.4073    0.1278    0.6930 C.2     1  UNL1        0.3881
      3 O           0.6542    0.1770    1.8823 O.2     1  UNL1       -0.4409
      4 C          -1.4823   -1.2792   -0.0371 C.2     1  UNL1       -0.0061
      5 CL         -3.1163   -1.5996   -0.4772 Cl      1  UNL1       -0.0307
      6 BR         -0.4132   -2.8294    0.1064 Br      1  UNL1       -0.0025
      7 C          -1.8058    1.1871    0.0793 C.ar    1  UNL1        0.1725
      8 C          -2.0042    2.0002    1.1926 C.ar    1  UNL1       -0.2246
      9 C          -2.7176    3.1825    1.0719 C.ar    1  UNL1       -0.1444
     10 C          -3.2275    3.5671   -0.1599 C.ar    1  UNL1       -0.1308
     11 C          -3.0216    2.7653   -1.2735 C.ar    1  UNL1       -0.1359
     12 C          -2.3133    1.5801   -1.1563 C.ar    1  UNL1       -0.2377
     13 H          -1.6026    1.7016    2.1523 H       1  UNL1        0.1533
     14 H          -2.8745    3.8047    1.9435 H       1  UNL1        0.1477
     15 H          -3.7820    4.4921   -0.2526 H       1  UNL1        0.1493
     16 H          -3.4110    3.0638   -2.2383 H       1  UNL1        0.1479
     17 H          -2.1482    0.9582   -2.0270 H       1  UNL1        0.1648
     18 N           1.3000    0.2852   -0.3104 N.am    1  UNL1       -0.2462
     19 C           2.6886    0.5072   -0.2399 C.ar    1  UNL1        0.3068
     20 C           3.3792    0.5739   -1.4498 C.ar    1  UNL1       -0.2990
     21 C           4.7447    0.7917   -1.4625 C.ar    1  UNL1       -0.0984
     22 C           5.4410    0.9453   -0.2711 C.ar    1  UNL1       -0.1812
     23 C           4.7518    0.8785    0.9288 C.ar    1  UNL1       -0.1119
     24 C           3.3810    0.6612    0.9582 C.ar    1  UNL1       -0.2857
     25 H           0.9225    0.2096   -1.2417 H       1  UNL1        0.2801
     26 H           2.8427    0.4541   -2.3836 H       1  UNL1        0.1483
     27 H           5.2659    0.8408   -2.4099 H       1  UNL1        0.1481
     28 H           6.5096    1.1153   -0.2805 H       1  UNL1        0.1452
     29 H           5.2826    0.9970    1.8651 H       1  UNL1        0.1463
     30 H           2.8540    0.6110    1.8967 H       1  UNL1        0.1653
@<TRIPOS>BOND
     1    27    21    1
     2    26    20    1
     3    16    11    1
     4    17    12    1
     5    21    20   ar
     6    21    22   ar
     7    20    19   ar
     8    11    12   ar
     9    11    10   ar
    10    25    18    1
    11    12     7   ar
    12     5     4    1
    13    18    19    1
    14    18     2   am
    15    28    22    1
    16    22    23   ar
    17    15    10    1
    18    19    24   ar
    19    10     9   ar
    20     4     6    1
    21     4     1    2
    22     7     1    1
    23     7     8   ar
    24     1     2    1
    25     2     3    2
    26    23    24   ar
    27    23    29    1
    28    24    30    1
    29     9     8   ar
    30     9    14    1
    31     8    13    1
