@<TRIPOS>MOLECULE
GS-939-0.out
 13 12 0 0 0
SMALL
MULLIKEN_CHARGES
****
Gaussian 16 # wB97XD def2tzvp, opt=(calcfc, maxcycles=70, maxstep=10), freq=norama
@<TRIPOS>ATOM
      1 C           0.8490    0.8244    0.0046 C.2     1  UNL1       -0.0482
      2 C           1.8987   -0.2582   -0.0948 C.2     1  UNL1        0.3155
      3 O           2.4269   -0.5093   -1.1646 O.2     1  UNL1       -0.4475
      4 C          -0.4399    0.5170    0.0136 C.2     1  UNL1       -0.0218
      5 CL         -1.7016    1.6967    0.0551 Cl      1  UNL1       -0.0556
      6 BR         -1.0810   -1.2616   -0.0502 Br      1  UNL1       -0.0179
      7 C           1.4090    2.2134    0.0174 C.3     1  UNL1       -0.3200
      8 H           2.0198    2.3641   -0.8748 H       1  UNL1        0.1533
      9 H           0.6295    2.9695    0.0438 H       1  UNL1        0.1381
     10 H           2.0579    2.3442    0.8860 H       1  UNL1        0.1510
     11 N           2.2343   -0.8415    1.0638 N.am    1  UNL1       -0.4330
     12 H           2.9411   -1.5575    1.0731 H       1  UNL1        0.2858
     13 H           1.7563   -0.6228    1.9194 H       1  UNL1        0.3003
@<TRIPOS>BOND
     1     3     2    2
     2     8     7    1
     3     2     1    1
     4     2    11   am
     5     6     4    1
     6     1     4    2
     7     1     7    1
     8     4     5    1
     9     7     9    1
    10     7    10    1
    11    11    12    1
    12    11    13    1
