@<TRIPOS>MOLECULE
GS-975-0.out
 20 20 0 0 0
SMALL
MULLIKEN_CHARGES
****
Gaussian 16 # wB97XD def2tzvp, opt=(calcfc, maxcycles=70, maxstep=10), freq=norama
@<TRIPOS>ATOM
      1 C          -1.7918    0.9730   -0.4431 C.2     1  UNL1       -0.2812
      2 C          -0.3430    1.1686   -0.1264 C.2     1  UNL1        0.4557
      3 O           0.0210    2.2347    0.3371 O.2     1  UNL1       -0.4598
      4 C          -2.5786   -0.0108   -0.0339 C.2     1  UNL1        0.0813
      5 CL         -4.2650   -0.0213   -0.3915 Cl      1  UNL1       -0.0344
      6 CL         -2.0636   -1.3569    0.9094 Cl      1  UNL1       -0.0255
      7 H          -2.2444    1.7949   -0.9822 H       1  UNL1        0.1926
      8 N           0.4687    0.1288   -0.4287 N.am    1  UNL1       -0.2860
      9 C           1.8562   -0.0024   -0.2371 C.ar    1  UNL1        0.3113
     10 C           2.6515    0.9814    0.3454 C.ar    1  UNL1       -0.2919
     11 C           4.0131    0.7559    0.4953 C.ar    1  UNL1       -0.1071
     12 C           4.5940   -0.4298    0.0754 C.ar    1  UNL1       -0.1838
     13 C           3.7962   -1.4072   -0.5043 C.ar    1  UNL1       -0.0979
     14 C           2.4385   -1.1976   -0.6604 C.ar    1  UNL1       -0.2988
     15 H           0.0219   -0.6679   -0.8524 H       1  UNL1        0.2744
     16 H           2.2095    1.9074    0.6742 H       1  UNL1        0.1651
     17 H           4.6236    1.5263    0.9492 H       1  UNL1        0.1462
     18 H           5.6568   -0.5928    0.1976 H       1  UNL1        0.1449
     19 H           4.2315   -2.3403   -0.8382 H       1  UNL1        0.1479
     20 H           1.8220   -1.9655   -1.1130 H       1  UNL1        0.1470
@<TRIPOS>BOND
     1    20    14    1
     2     7     1    1
     3    15     8    1
     4    19    13    1
     5    14    13   ar
     6    14     9   ar
     7    13    12   ar
     8     1     2    1
     9     1     4    2
    10     8     9    1
    11     8     2   am
    12     5     4    1
    13     9    10   ar
    14     2     3    2
    15     4     6    1
    16    12    18    1
    17    12    11   ar
    18    10    11   ar
    19    10    16    1
    20    11    17    1
