@<TRIPOS>MOLECULE
GS-958-0.out
 16 15 0 0 0
SMALL
MULLIKEN_CHARGES
****
Gaussian 16 # wB97XD def2tzvp, opt=(calcfc, maxcycles=70, maxstep=10), freq=norama
@<TRIPOS>ATOM
      1 C           0.0626    0.8745   -0.1909 C.2     1  UNL1       -0.0339
      2 C           1.3754    0.2465   -0.6082 C.2     1  UNL1        0.3224
      3 O           1.6320    0.2019   -1.8026 O.2     1  UNL1       -0.4637
      4 C          -1.0627    0.1931   -0.0170 C.2     1  UNL1       -0.0404
      5 CL         -2.5767    0.9178    0.3168 Cl      1  UNL1       -0.0208
      6 BR         -1.0711   -1.6860   -0.1194 Br      1  UNL1        0.0158
      7 CL          0.1182    2.5930   -0.0985 Cl      1  UNL1       -0.0387
      8 N           2.1814   -0.1900    0.3682 N.am    1  UNL1       -0.0969
      9 C           3.4501   -0.8074    0.0308 C.3     1  UNL1       -0.2747
     10 C           1.8780   -0.1278    1.7851 C.3     1  UNL1       -0.2983
     11 H           3.5684   -0.8255   -1.0475 H       1  UNL1        0.1543
     12 H           4.2681   -0.2403    0.4785 H       1  UNL1        0.1481
     13 H           3.4767   -1.8276    0.4183 H       1  UNL1        0.1456
     14 H           0.9579    0.4192    1.9664 H       1  UNL1        0.1730
     15 H           1.7741   -1.1364    2.1903 H       1  UNL1        0.1553
     16 H           2.6914    0.3775    2.3079 H       1  UNL1        0.1530
@<TRIPOS>BOND
     1     3     2    2
     2    11     9    1
     3     2     1    1
     4     2     8   am
     5     1     7    1
     6     1     4    2
     7     6     4    1
     8     4     5    1
     9     9     8    1
    10     9    13    1
    11     9    12    1
    12     8    10    1
    13    10    14    1
    14    10    15    1
    15    10    16    1
