@<TRIPOS>MOLECULE
GS-960-0.out
 18 18 0 0 0
SMALL
MULLIKEN_CHARGES
****
Gaussian 16 # wB97XD def2tzvp, opt=(calcfc, maxcycles=70, maxstep=10), freq=norama
@<TRIPOS>ATOM
      1 C           0.7339    0.9321    0.2823 C.2     1  UNL1        0.0057
      2 C          -0.5335    0.6152    1.0573 C.2     1  UNL1        0.3586
      3 O          -0.5035    0.6945    2.2616 O.2     1  UNL1       -0.3471
      4 C           1.6180    0.0219   -0.1030 C.2     1  UNL1       -0.0461
      5 CL          3.0799    0.3920   -0.9107 Cl      1  UNL1       -0.0180
      6 BR          1.3100   -1.8061    0.2221 Br      1  UNL1        0.0193
      7 CL          0.9534    2.6151    0.0032 Cl      1  UNL1       -0.0319
      8 C          -1.7490    0.2705    0.2872 C.ar    1  UNL1        0.0332
      9 C          -2.9227   -0.0185    0.9841 C.ar    1  UNL1       -0.2066
     10 C          -4.0742   -0.3444    0.2936 C.ar    1  UNL1       -0.1197
     11 C          -4.0625   -0.3816   -1.0963 C.ar    1  UNL1       -0.1153
     12 C          -2.8992   -0.0933   -1.7947 C.ar    1  UNL1       -0.1491
     13 C          -1.7425    0.2311   -1.1057 C.ar    1  UNL1       -0.1801
     14 H          -2.9166    0.0151    2.0654 H       1  UNL1        0.1535
     15 H          -4.9836   -0.5704    0.8346 H       1  UNL1        0.1536
     16 H          -4.9656   -0.6369   -1.6359 H       1  UNL1        0.1557
     17 H          -2.8923   -0.1225   -2.8761 H       1  UNL1        0.1538
     18 H          -0.8369    0.4530   -1.6555 H       1  UNL1        0.1806
@<TRIPOS>BOND
     1    17    12    1
     2    12    13   ar
     3    12    11   ar
     4    18    13    1
     5    16    11    1
     6    13     8   ar
     7    11    10   ar
     8     5     4    1
     9     4     6    1
    10     4     1    2
    11     7     1    1
    12     1     2    1
    13     8     9   ar
    14     8     2    1
    15    10    15    1
    16    10     9   ar
    17     9    14    1
    18     2     3    2
