@<TRIPOS>MOLECULE
GS-974-0.out
 16 15 0 0 0
SMALL
MULLIKEN_CHARGES
****
Gaussian 16 # wB97XD def2tzvp, opt=(calcfc, maxcycles=70, maxstep=10), freq=norama
@<TRIPOS>ATOM
      1 C           0.2788   -0.9489   -0.3603 C.2     1  UNL1       -0.2589
      2 C          -1.1285   -0.8569    0.1520 C.2     1  UNL1        0.3452
      3 O          -1.4756   -1.6736    0.9985 O.2     1  UNL1       -0.4882
      4 C           1.2629   -0.1445   -0.0015 C.2     1  UNL1        0.0677
      5 CL          2.8973   -0.4088   -0.4856 Cl      1  UNL1       -0.0451
      6 CL          1.0357    1.2499    0.9872 Cl      1  UNL1       -0.0364
      7 H           0.5076   -1.8187   -0.9626 H       1  UNL1        0.1944
      8 N          -1.9352    0.0894   -0.3535 N.am    1  UNL1       -0.1110
      9 C          -3.2878    0.2292    0.1499 C.3     1  UNL1       -0.2769
     10 C          -1.5701    1.0096   -1.4124 C.3     1  UNL1       -0.3027
     11 H          -3.4214   -0.4124    1.0148 H       1  UNL1        0.1509
     12 H          -3.4633    1.2680    0.4350 H       1  UNL1        0.1420
     13 H          -4.0097   -0.0477   -0.6217 H       1  UNL1        0.1467
     14 H          -0.6101    0.7436   -1.8438 H       1  UNL1        0.1701
     15 H          -2.3255    0.9706   -2.1992 H       1  UNL1        0.1489
     16 H          -1.5189    2.0309   -1.0290 H       1  UNL1        0.1532
@<TRIPOS>BOND
     1    15    10    1
     2    14    10    1
     3    10    16    1
     4    10     8    1
     5     7     1    1
     6    13     9    1
     7     5     4    1
     8     1     4    2
     9     1     2    1
    10     8     9    1
    11     8     2   am
    12     4     6    1
    13     9    12    1
    14     9    11    1
    15     2     3    2
