@<TRIPOS>MOLECULE
GS-924-0.out
 22 22 0 0 0
SMALL
MULLIKEN_CHARGES
****
Gaussian 16 # wB97XD def2tzvp, opt=(calcfc, maxcycles=70, maxstep=10), freq=norama
@<TRIPOS>ATOM
      1 C           0.0842    0.1176    0.1068 C.2     1  UNL1        0.0008
      2 C          -0.4119    1.5287    0.2665 C.2     1  UNL1        0.3837
      3 O          -0.5652    2.0629    1.3334 O.2     1  UNL1       -0.3856
      4 C          -0.7784   -0.8885    0.0490 C.2     1  UNL1       -0.0275
      5 CL         -0.3070   -2.5411   -0.0332 Cl      1  UNL1       -0.0281
      6 BR         -2.6465   -0.6215    0.0776 Br      1  UNL1        0.0007
      7 C           1.5613   -0.0242    0.0544 C.ar    1  UNL1        0.1701
      8 C           2.1813   -0.5619   -1.0701 C.ar    1  UNL1       -0.2433
      9 C           3.5622   -0.6646   -1.1206 C.ar    1  UNL1       -0.1338
     10 C           4.3332   -0.2294   -0.0520 C.ar    1  UNL1       -0.1328
     11 C           3.7193    0.3149    1.0668 C.ar    1  UNL1       -0.1447
     12 C           2.3384    0.4234    1.1198 C.ar    1  UNL1       -0.2160
     13 H           1.5807   -0.8946   -1.9069 H       1  UNL1        0.1652
     14 H           4.0366   -1.0828   -1.9990 H       1  UNL1        0.1485
     15 H           5.4118   -0.3112   -0.0929 H       1  UNL1        0.1497
     16 H           4.3162    0.6572    1.9023 H       1  UNL1        0.1484
     17 H           1.8598    0.8505    1.9919 H       1  UNL1        0.1552
     18 O          -0.5962    2.1083   -0.9072 O.3     1  UNL1       -0.2526
     19 C          -1.0319    3.4749   -0.8837 C.3     1  UNL1       -0.2059
     20 H          -1.1198    3.7704   -1.9242 H       1  UNL1        0.1542
     21 H          -1.9954    3.5517   -0.3822 H       1  UNL1        0.1468
     22 H          -0.2978    4.0941   -0.3708 H       1  UNL1        0.1469
@<TRIPOS>BOND
     1    14     9    1
     2    20    19    1
     3    13     8    1
     4     9     8   ar
     5     9    10   ar
     6     8     7   ar
     7    18    19    1
     8    18     2    1
     9    19    21    1
    10    19    22    1
    11    15    10    1
    12    10    11   ar
    13     5     4    1
    14     4     6    1
    15     4     1    2
    16     7     1    1
    17     7    12   ar
    18     1     2    1
    19     2     3    2
    20    11    12   ar
    21    11    16    1
    22    12    17    1
