@<TRIPOS>MOLECULE
GS-901-0.out
 19 18 0 0 0
SMALL
MULLIKEN_CHARGES
****
Gaussian 16 # wB97XD def2tzvp, opt=(calcfc, maxcycles=70, maxstep=10), freq=norama
@<TRIPOS>ATOM
      1 C           0.2232    0.5986   -0.0092 C.2     1  UNL1       -0.0875
      2 C          -1.2399    0.3661    0.2705 C.2     1  UNL1        0.3397
      3 O          -1.7839    0.8667    1.2471 O.2     1  UNL1       -0.4828
      4 C           1.0782   -0.4130    0.0991 C.2     1  UNL1        0.0652
      5 CL          2.7930   -0.1501   -0.1840 Cl      1  UNL1       -0.1288
      6 C           0.7829   -1.8279    0.4781 C.3     1  UNL1       -0.3790
      7 H          -0.2707   -1.9636    0.7133 H       1  UNL1        0.1446
      8 H           1.0489   -2.5058   -0.3350 H       1  UNL1        0.1502
      9 H           1.3733   -2.1107    1.3510 H       1  UNL1        0.1479
     10 C           0.5513    2.0249   -0.3275 C.3     1  UNL1       -0.3361
     11 H           0.0249    2.3415   -1.2312 H       1  UNL1        0.1424
     12 H           0.2138    2.6685    0.4869 H       1  UNL1        0.1443
     13 H           1.6172    2.1750   -0.4753 H       1  UNL1        0.1308
     14 N          -1.8998   -0.3688   -0.6357 N.am    1  UNL1       -0.3101
     15 C          -3.3120   -0.6591   -0.5147 C.3     1  UNL1       -0.2509
     16 H          -1.3895   -0.7329   -1.4206 H       1  UNL1        0.2844
     17 H          -3.6209   -1.2462   -1.3756 H       1  UNL1        0.1491
     18 H          -3.5158   -1.2271    0.3943 H       1  UNL1        0.1387
     19 H          -3.8952    0.2620   -0.4844 H       1  UNL1        0.1379
@<TRIPOS>BOND
     1    16    14    1
     2    17    15    1
     3    11    10    1
     4    14    15    1
     5    14     2   am
     6    15    19    1
     7    15    18    1
     8    13    10    1
     9     8     6    1
    10    10     1    1
    11    10    12    1
    12     5     4    1
    13     1     4    2
    14     1     2    1
    15     4     6    1
    16     2     3    2
    17     6     7    1
    18     6     9    1
