@<TRIPOS>MOLECULE
GS-961-0.out
 18 18 0 0 0
SMALL
MULLIKEN_CHARGES
****
Gaussian 16 # wB97XD def2tzvp, opt=(calcfc, maxcycles=70, maxstep=10), freq=norama
@<TRIPOS>ATOM
      1 C           0.5442    0.5931    0.0000 C.2     1  UNL1       -0.0921
      2 C           0.8664    2.0379    0.0002 C.2     1  UNL1        0.1714
      3 O           0.0172    2.8959    0.0003 O.2     1  UNL1       -0.3602
      4 C           1.5182   -0.3245   -0.0001 C.2     1  UNL1        0.0972
      5 CL          1.1937   -2.0093   -0.0002 Cl      1  UNL1       -0.0009
      6 CL          3.1994    0.0369   -0.0000 Cl      1  UNL1       -0.0108
      7 C          -0.8920    0.2099    0.0000 C.ar    1  UNL1        0.1547
      8 C          -1.5711    0.0444   -1.2019 C.ar    1  UNL1       -0.1967
      9 C          -2.9157   -0.2945   -1.2009 C.ar    1  UNL1       -0.1477
     10 C          -3.5895   -0.4656   -0.0000 C.ar    1  UNL1       -0.1242
     11 C          -2.9155   -0.2953    1.2009 C.ar    1  UNL1       -0.1477
     12 C          -1.5709    0.0436    1.2019 C.ar    1  UNL1       -0.1967
     13 H          -1.0438    0.1771   -2.1385 H       1  UNL1        0.1487
     14 H          -3.4372   -0.4253   -2.1404 H       1  UNL1        0.1466
     15 H          -4.6390   -0.7308   -0.0000 H       1  UNL1        0.1486
     16 H          -3.4369   -0.4268    2.1404 H       1  UNL1        0.1466
     17 H          -1.0435    0.1757    2.1386 H       1  UNL1        0.1487
     18 H           1.9340    2.3013    0.0002 H       1  UNL1        0.1144
@<TRIPOS>BOND
     1    14     9    1
     2    13     8    1
     3     8     9   ar
     4     8     7   ar
     5     9    10   ar
     6     5     4    1
     7     4     6    1
     8     4     1    2
     9    15    10    1
    10    10    11   ar
    11     7     1    1
    12     7    12   ar
    13     1     2    1
    14    18     2    1
    15     2     3    2
    16    11    12   ar
    17    11    16    1
    18    12    17    1
