@<TRIPOS>MOLECULE
GS-941-0.out
 16 15 0 0 0
SMALL
MULLIKEN_CHARGES
****
Gaussian 16 # wB97XD def2tzvp, opt=(calcfc, maxcycles=70, maxstep=10), freq=norama
@<TRIPOS>ATOM
      1 C           0.1875    1.1386    0.0515 C.2     1  UNL1       -0.0804
      2 C           1.5390    0.5211    0.3201 C.2     1  UNL1        0.3799
      3 O           2.0278    0.5619    1.4399 O.2     1  UNL1       -0.4719
      4 C          -0.8944    0.3782   -0.0394 C.2     1  UNL1       -0.0216
      5 CL         -2.4860    1.0067   -0.2801 Cl      1  UNL1       -0.0568
      6 BR         -0.8528   -1.5072    0.1181 Br      1  UNL1       -0.0207
      7 C           0.2016    2.6343   -0.0203 C.3     1  UNL1       -0.3302
      8 H           0.8372    2.9601   -0.8466 H       1  UNL1        0.1512
      9 H          -0.7931    3.0490   -0.1569 H       1  UNL1        0.1371
     10 H           0.6299    3.0343    0.9007 H       1  UNL1        0.1537
     11 N           2.1603    0.0057   -0.7461 N.am    1  UNL1       -0.3052
     12 C           3.4670   -0.6098   -0.6521 C.3     1  UNL1       -0.2519
     13 H           1.6726   -0.0128   -1.6246 H       1  UNL1        0.2852
     14 H           3.4321   -1.5100   -0.0361 H       1  UNL1        0.1402
     15 H           3.7981   -0.8761   -1.6523 H       1  UNL1        0.1509
     16 H           4.1838    0.0839   -0.2126 H       1  UNL1        0.1407
@<TRIPOS>BOND
     1    15    12    1
     2    13    11    1
     3     8     7    1
     4    11    12    1
     5    11     2   am
     6    12    16    1
     7    12    14    1
     8     5     4    1
     9     9     7    1
    10     4     1    2
    11     4     6    1
    12     7     1    1
    13     7    10    1
    14     1     2    1
    15     2     3    2
