@<TRIPOS>MOLECULE
GS-920-0.out
 21 21 0 0 0
SMALL
MULLIKEN_CHARGES
****
Gaussian 16 # wB97XD def2tzvp, opt=(calcfc, maxcycles=70, maxstep=10), freq=norama
@<TRIPOS>ATOM
      1 C           1.0710    0.1361   -0.4132 C.2     1  UNL1       -0.0220
      2 C          -0.2040    0.9357   -0.5672 C.2     1  UNL1        0.2858
      3 O          -0.1564    2.0422   -1.0525 O.2     1  UNL1       -0.3557
      4 C           1.9833    0.3960    0.5151 C.2     1  UNL1        0.0625
      5 CL          3.4437   -0.5337    0.6061 Cl      1  UNL1       -0.0819
      6 C           1.8611    1.4557    1.5586 C.3     1  UNL1       -0.3592
      7 H           0.9151    1.9871    1.4778 H       1  UNL1        0.1521
      8 H           1.9286    1.0076    2.5508 H       1  UNL1        0.1555
      9 H           2.6748    2.1753    1.4580 H       1  UNL1        0.1571
     10 CL          1.2202   -1.1181   -1.5931 Cl      1  UNL1       -0.0621
     11 C          -1.4721    0.3063   -0.1245 C.ar    1  UNL1        0.0764
     12 C          -2.6809    0.9013   -0.4852 C.ar    1  UNL1       -0.2118
     13 C          -3.8767    0.3508   -0.0640 C.ar    1  UNL1       -0.1218
     14 C          -3.8735   -0.7925    0.7269 C.ar    1  UNL1       -0.1187
     15 C          -2.6744   -1.3861    1.0932 C.ar    1  UNL1       -0.1493
     16 C          -1.4748   -0.8412    0.6656 C.ar    1  UNL1       -0.1953
     17 H          -2.6681    1.7927   -1.0983 H       1  UNL1        0.1509
     18 H          -4.8140    0.8102   -0.3494 H       1  UNL1        0.1523
     19 H          -4.8107   -1.2213    1.0581 H       1  UNL1        0.1544
     20 H          -2.6735   -2.2737    1.7120 H       1  UNL1        0.1522
     21 H          -0.5405   -1.3048    0.9560 H       1  UNL1        0.1785
@<TRIPOS>BOND
     1    10     1    1
     2    17    12    1
     3     3     2    2
     4     2     1    1
     5     2    11    1
     6    12    11   ar
     7    12    13   ar
     8     1     4    2
     9    18    13    1
    10    11    16   ar
    11    13    14   ar
    12     4     5    1
    13     4     6    1
    14    16    21    1
    15    16    15   ar
    16    14    19    1
    17    14    15   ar
    18    15    20    1
    19     9     6    1
    20     7     6    1
    21     6     8    1
