@<TRIPOS>MOLECULE
GS-971-0.out
 10 9 0 0 0
SMALL
MULLIKEN_CHARGES
****
Gaussian 16 # wB97XD def2tzvp, opt=(calcfc, maxcycles=70, maxstep=10), freq=norama
@<TRIPOS>ATOM
      1 C          -0.4189   -0.8508    0.1638 C.2     1  UNL1       -0.2351
      2 C          -1.8392   -0.4081    0.0191 C.2     1  UNL1        0.3620
      3 O          -2.6103   -1.1107   -0.6173 O.2     1  UNL1       -0.4661
      4 C           0.6864   -0.1331    0.0276 C.2     1  UNL1        0.0816
      5 CL          2.2449   -0.8675    0.1204 Cl      1  UNL1       -0.0364
      6 CL          0.7450    1.5592   -0.2823 Cl      1  UNL1       -0.0270
      7 H          -0.3076   -1.9178    0.3047 H       1  UNL1        0.1900
      8 N          -2.2104    0.7260    0.6296 N.am    1  UNL1       -0.4480
      9 H          -3.1632    1.0362    0.5438 H       1  UNL1        0.2875
     10 H          -1.5720    1.2773    1.1735 H       1  UNL1        0.2916
@<TRIPOS>BOND
     1     3     2    2
     2     6     4    1
     3     2     1    1
     4     2     8   am
     5     4     5    1
     6     4     1    2
     7     1     7    1
     8     9     8    1
     9     8    10    1
