@<TRIPOS>MOLECULE
GS-96-0.out
 31 32 0 0 0
SMALL
MULLIKEN_CHARGES
****
Gaussian 16 # wB97XD def2tzvp, opt=(calcfc, maxcycles=70, maxstep=10), freq=norama
@<TRIPOS>ATOM
      1 C           0.0342    0.3981   -0.1797 C.2     1  UNL1       -0.3082
      2 C          -1.2799    1.0591   -0.1011 C.2     1  UNL1        0.3211
      3 O          -1.4143    2.2717   -0.0815 O.2     1  UNL1       -0.4270
      4 C           1.2079    0.9172    0.2182 C.2     1  UNL1        0.0973
      5 C           2.4460    0.1141    0.0591 C.ar    1  UNL1        0.1558
      6 C           2.4458   -1.2698    0.2394 C.ar    1  UNL1       -0.2304
      7 C           3.6062   -2.0077    0.0696 C.ar    1  UNL1       -0.1576
      8 C           4.7892   -1.3764   -0.2867 C.ar    1  UNL1       -0.1296
      9 C           4.8055    0.0001   -0.4600 C.ar    1  UNL1       -0.1552
     10 C           3.6479    0.7394   -0.2776 C.ar    1  UNL1       -0.2223
     11 H           1.5358   -1.7723    0.5415 H       1  UNL1        0.1755
     12 H           3.5871   -3.0790    0.2245 H       1  UNL1        0.1444
     13 H           5.6956   -1.9530   -0.4201 H       1  UNL1        0.1472
     14 H           5.7240    0.5023   -0.7358 H       1  UNL1        0.1453
     15 H           3.6776    1.8125   -0.4165 H       1  UNL1        0.1598
     16 C           1.3679    2.2799    0.8246 C.3     1  UNL1       -0.3939
     17 H           2.1724    2.2769    1.5598 H       1  UNL1        0.1492
     18 H           1.6301    3.0074    0.0516 H       1  UNL1        0.1548
     19 H           0.4468    2.6256    1.2842 H       1  UNL1        0.1492
     20 H           0.0320   -0.5962   -0.6079 H       1  UNL1        0.1878
     21 C          -2.4909    0.1765   -0.0767 C.ar    1  UNL1        0.1140
     22 C          -3.7166    0.7124   -0.4677 C.ar    1  UNL1       -0.2052
     23 C          -4.8624   -0.0630   -0.4387 C.ar    1  UNL1       -0.1301
     24 C          -4.7982   -1.3803   -0.0019 C.ar    1  UNL1       -0.1297
     25 C          -3.5850   -1.9187    0.4009 C.ar    1  UNL1       -0.1520
     26 C          -2.4342   -1.1465    0.3563 C.ar    1  UNL1       -0.2329
     27 H          -3.7568    1.7418   -0.7990 H       1  UNL1        0.1460
     28 H          -5.8081    0.3579   -0.7554 H       1  UNL1        0.1477
     29 H          -5.6949   -1.9863    0.0252 H       1  UNL1        0.1499
     30 H          -3.5334   -2.9417    0.7502 H       1  UNL1        0.1466
     31 H          -1.4956   -1.5755    0.6824 H       1  UNL1        0.1827
@<TRIPOS>BOND
     1    27    22    1
     2    28    23    1
     3    14     9    1
     4    20     1    1
     5    22    23   ar
     6    22    21   ar
     7     9     8   ar
     8     9    10   ar
     9    23    24   ar
    10    13     8    1
    11    15    10    1
    12     8     7   ar
    13    10     5   ar
    14     1     2    1
    15     1     4    2
    16     2     3    2
    17     2    21    1
    18    21    26   ar
    19    24    29    1
    20    24    25   ar
    21    18    16    1
    22     5     4    1
    23     5     6   ar
    24     7    12    1
    25     7     6   ar
    26     4    16    1
    27     6    11    1
    28    26    25   ar
    29    26    31    1
    30    25    30    1
    31    16    19    1
    32    16    17    1
