@<TRIPOS>MOLECULE
GS-979-0.out
 13 12 0 0 0
SMALL
MULLIKEN_CHARGES
****
Gaussian 16 # wB97XD def2tzvp, opt=(calcfc, maxcycles=70, maxstep=10), freq=norama
@<TRIPOS>ATOM
      1 C           0.3648    0.6896    0.0232 C.2     1  UNL1       -0.0599
      2 C           1.7354    0.0646   -0.0923 C.2     1  UNL1        0.3109
      3 O           2.3491    0.1174   -1.1447 O.2     1  UNL1       -0.4496
      4 C          -0.7201   -0.0712   -0.0053 C.2     1  UNL1        0.0245
      5 CL         -2.3308    0.5518    0.0473 Cl      1  UNL1       -0.0530
      6 CL         -0.6630   -1.7964   -0.1290 Cl      1  UNL1       -0.0466
      7 C           0.3736    2.1848    0.0889 C.3     1  UNL1       -0.3171
      8 H           0.8877    2.5818   -0.7885 H       1  UNL1        0.1523
      9 H          -0.6301    2.5986    0.1274 H       1  UNL1        0.1377
     10 H           0.9255    2.5159    0.9712 H       1  UNL1        0.1500
     11 N           2.2253   -0.4694    1.0348 N.am    1  UNL1       -0.4354
     12 H           3.1404   -0.8875    1.0286 H       1  UNL1        0.2857
     13 H           1.6799   -0.5127    1.8768 H       1  UNL1        0.3005
@<TRIPOS>BOND
     1     3     2    2
     2     8     7    1
     3     6     4    1
     4     2     1    1
     5     2    11   am
     6     4     1    2
     7     4     5    1
     8     1     7    1
     9     7     9    1
    10     7    10    1
    11    12    11    1
    12    11    13    1
