@<TRIPOS>MOLECULE
GS-998-0.out
 16 15 0 0 0
SMALL
MULLIKEN_CHARGES
****
Gaussian 16 # wB97XD def2tzvp, opt=(calcfc, maxcycles=70, maxstep=10), freq=norama
@<TRIPOS>ATOM
      1 C          -0.2498    0.5386   -0.1737 C.2     1  UNL1       -0.0551
      2 C           1.1756    0.2644   -0.6021 C.2     1  UNL1        0.3215
      3 O           1.4515    0.4004   -1.7853 O.2     1  UNL1       -0.4656
      4 C          -1.1784   -0.4052   -0.0765 C.2     1  UNL1        0.0173
      5 CL         -2.8273   -0.0996    0.2663 Cl      1  UNL1       -0.0176
      6 CL         -0.7698   -2.0634   -0.2896 Cl      1  UNL1       -0.0201
      7 CL         -0.6113    2.2067    0.0357 Cl      1  UNL1       -0.0384
      8 N           2.0454   -0.0866    0.3539 N.am    1  UNL1       -0.0969
      9 C           3.4219   -0.3792    0.0007 C.3     1  UNL1       -0.2763
     10 C           1.7233   -0.2204    1.7616 C.3     1  UNL1       -0.2957
     11 H           3.5398   -0.3202   -1.0762 H       1  UNL1        0.1540
     12 H           4.0903    0.3381    0.4805 H       1  UNL1        0.1489
     13 H           3.6805   -1.3829    0.3426 H       1  UNL1        0.1454
     14 H           0.7088    0.1079    1.9655 H       1  UNL1        0.1726
     15 H           1.8268   -1.2618    2.0725 H       1  UNL1        0.1543
     16 H           2.4103    0.3904    2.3494 H       1  UNL1        0.1518
@<TRIPOS>BOND
     1     3     2    2
     2    11     9    1
     3     2     1    1
     4     2     8   am
     5     6     4    1
     6     1     4    2
     7     1     7    1
     8     4     5    1
     9     9    13    1
    10     9     8    1
    11     9    12    1
    12     8    10    1
    13    10    14    1
    14    10    15    1
    15    10    16    1
