@<TRIPOS>MOLECULE
GS-926-1.out
 26 26 0 0 0
SMALL
MULLIKEN_CHARGES
****
Gaussian 16 # wB97XD def2tzvp, opt=(calcfc, maxcycles=70, maxstep=1), freq=noraman
@<TRIPOS>ATOM
      1 C           0.1089   -0.0047   -0.2058 C.2     1  UNL1       -0.1085
      2 C          -0.4130    1.3757   -0.5439 C.2     1  UNL1        0.2937
      3 O          -0.5398    1.6751   -1.7251 O.2     1  UNL1       -0.4731
      4 C          -0.7275   -1.0275   -0.0846 C.2     1  UNL1        0.0034
      5 CL         -0.2255   -2.6653    0.1052 Cl      1  UNL1       -0.0355
      6 BR         -2.6032   -0.8070   -0.1211 Br      1  UNL1       -0.0084
      7 C           1.5880   -0.1117   -0.1278 C.ar    1  UNL1        0.2004
      8 C           2.2067   -0.6144    1.0144 C.ar    1  UNL1       -0.2515
      9 C           3.5888   -0.6764    1.0910 C.ar    1  UNL1       -0.1372
     10 C           4.3663   -0.2373    0.0291 C.ar    1  UNL1       -0.1341
     11 C           3.7555    0.2711   -1.1083 C.ar    1  UNL1       -0.1442
     12 C           2.3735    0.3406   -1.1860 C.ar    1  UNL1       -0.2327
     13 H           1.6054   -0.9537    1.8482 H       1  UNL1        0.1729
     14 H           4.0585   -1.0665    1.9848 H       1  UNL1        0.1473
     15 H           5.4459   -0.2877    0.0895 H       1  UNL1        0.1485
     16 H           4.3565    0.6167   -1.9396 H       1  UNL1        0.1469
     17 H           1.8965    0.7421   -2.0707 H       1  UNL1        0.1527
     18 N          -0.6470    2.2144    0.4768 N.am    1  UNL1       -0.0849
     19 C          -1.0857    3.5711    0.2139 C.3     1  UNL1       -0.2793
     20 C          -0.5153    1.8655    1.8771 C.3     1  UNL1       -0.2851
     21 H          -1.0927    3.7485   -0.8565 H       1  UNL1        0.1536
     22 H          -2.0903    3.7236    0.6143 H       1  UNL1        0.1457
     23 H          -0.4065    4.2764    0.6964 H       1  UNL1        0.1432
     24 H          -0.2450    0.8211    1.9953 H       1  UNL1        0.1632
     25 H           0.2524    2.4840    2.3464 H       1  UNL1        0.1517
     26 H          -1.4639    2.0374    2.3893 H       1  UNL1        0.1515
@<TRIPOS>BOND
     1    17    12    1
     2    16    11    1
     3     3     2    2
     4    12    11   ar
     5    12     7   ar
     6    11    10   ar
     7    21    19    1
     8     2     1    1
     9     2    18   am
    10     1     7    1
    11     1     4    2
    12     7     8   ar
    13     6     4    1
    14     4     5    1
    15    10    15    1
    16    10     9   ar
    17    19    18    1
    18    19    22    1
    19    19    23    1
    20    18    20    1
    21     8     9   ar
    22     8    13    1
    23     9    14    1
    24    20    24    1
    25    20    25    1
    26    20    26    1
