@<TRIPOS>MOLECULE
GS-953-0.out
 8 7 0 0 0
SMALL
MULLIKEN_CHARGES
****
Gaussian 16 # wB97XD def2tzvp, opt=(calcfc, maxcycles=70, maxstep=10), freq=norama
@<TRIPOS>ATOM
      1 C           0.9884   -0.1781    0.0000 C.2     1  UNL1       -0.0003
      2 C           1.2024   -1.6459    0.0000 C.2     1  UNL1        0.1384
      3 O           2.2939   -2.1504   -0.0000 O.2     1  UNL1       -0.3360
      4 C          -0.2244    0.3942    0.0000 C.2     1  UNL1        0.0489
      5 CL         -0.4489    2.0835    0.0000 Cl      1  UNL1        0.0132
      6 BR         -1.8259   -0.5879   -0.0000 Br      1  UNL1        0.0402
      7 CL          2.4178    0.7760   -0.0000 Cl      1  UNL1       -0.0432
      8 H           0.2867   -2.2523    0.0000 H       1  UNL1        0.1388
@<TRIPOS>BOND
     1     3     2    2
     2     1     4    2
     3     1     7    1
     4     1     2    1
     5     4     5    1
     6     4     6    1
     7     2     8    1
