@<TRIPOS>MOLECULE
GS-956-0.out
 12 11 0 0 0
SMALL
MULLIKEN_CHARGES
****
Gaussian 16 # wB97XD def2tzvp, opt=(calcfc, maxcycles=70, maxstep=10), freq=norama
@<TRIPOS>ATOM
      1 C          -0.2139    0.8877    0.0535 C.2     1  UNL1        0.0103
      2 C          -1.5634    0.2674    0.3030 C.2     1  UNL1        0.4132
      3 O          -2.1239    0.3407    1.3623 O.2     1  UNL1       -0.3748
      4 C           0.9132    0.1906   -0.0321 C.2     1  UNL1       -0.0378
      5 CL          2.4495    0.9078   -0.2511 Cl      1  UNL1       -0.0135
      6 BR          0.9110   -1.6835    0.1177 Br      1  UNL1        0.0251
      7 CL         -0.2537    2.6034   -0.0343 Cl      1  UNL1       -0.0291
      8 O          -2.0354   -0.3141   -0.7815 O.3     1  UNL1       -0.2501
      9 C          -3.3153   -0.9532   -0.6566 C.3     1  UNL1       -0.1998
     10 H          -3.5294   -1.3664   -1.6366 H       1  UNL1        0.1560
     11 H          -3.2639   -1.7438    0.0902 H       1  UNL1        0.1498
     12 H          -4.0715   -0.2233   -0.3735 H       1  UNL1        0.1506
@<TRIPOS>BOND
     1    10     9    1
     2     8     9    1
     3     8     2    1
     4     9    12    1
     5     9    11    1
     6     5     4    1
     7     7     1    1
     8     4     1    2
     9     4     6    1
    10     1     2    1
    11     2     3    2
