@<TRIPOS>MOLECULE
GS-966-0.out
 26 26 0 0 0
SMALL
MULLIKEN_CHARGES
****
Gaussian 16 # wB97XD def2tzvp, opt=(calcfc, maxcycles=70, maxstep=10), freq=norama
@<TRIPOS>ATOM
      1 C           0.2447    0.1820   -0.2276 C.2     1  UNL1       -0.1206
      2 C           1.0880   -1.0316   -0.5571 C.2     1  UNL1        0.2821
      3 O           1.3012   -1.2910   -1.7353 O.2     1  UNL1       -0.4745
      4 C           0.8179    1.3746   -0.1287 C.2     1  UNL1        0.0504
      5 CL         -0.0456    2.8556    0.0479 Cl      1  UNL1       -0.0328
      6 CL          2.5326    1.5796   -0.1856 Cl      1  UNL1       -0.0391
      7 C          -1.2147   -0.0673   -0.1314 C.ar    1  UNL1        0.2085
      8 C          -1.9320    0.3134    1.0004 C.ar    1  UNL1       -0.2530
      9 C          -3.2879    0.0432    1.0932 C.ar    1  UNL1       -0.1365
     10 C          -3.9409   -0.6109    0.0585 C.ar    1  UNL1       -0.1347
     11 C          -3.2301   -1.0003   -1.0677 C.ar    1  UNL1       -0.1438
     12 C          -1.8728   -0.7368   -1.1614 C.ar    1  UNL1       -0.2328
     13 H          -1.4269    0.8180    1.8141 H       1  UNL1        0.1728
     14 H          -3.8339    0.3418    1.9788 H       1  UNL1        0.1473
     15 H          -5.0004   -0.8205    0.1316 H       1  UNL1        0.1485
     16 H          -3.7331   -1.5128   -1.8776 H       1  UNL1        0.1469
     17 H          -1.3178   -1.0445   -2.0382 H       1  UNL1        0.1522
     18 N           1.5038   -1.7894    0.4691 N.am    1  UNL1       -0.0846
     19 C           2.2517   -3.0055    0.2166 C.3     1  UNL1       -0.2798
     20 C           1.2664   -1.4857    1.8660 C.3     1  UNL1       -0.2816
     21 H           2.3147   -3.1764   -0.8530 H       1  UNL1        0.1532
     22 H           3.2585   -2.9189    0.6308 H       1  UNL1        0.1461
     23 H           1.7498   -3.8501    0.6924 H       1  UNL1        0.1427
     24 H           0.7722   -0.5260    1.9778 H       1  UNL1        0.1631
     25 H           0.6425   -2.2594    2.3182 H       1  UNL1        0.1505
     26 H           2.2179   -1.4485    2.3998 H       1  UNL1        0.1496
@<TRIPOS>BOND
     1    17    12    1
     2    16    11    1
     3     3     2    2
     4    12    11   ar
     5    12     7   ar
     6    11    10   ar
     7    21    19    1
     8     2     1    1
     9     2    18   am
    10     1     7    1
    11     1     4    2
    12     6     4    1
    13     7     8   ar
    14     4     5    1
    15    10    15    1
    16    10     9   ar
    17    19    18    1
    18    19    22    1
    19    19    23    1
    20    18    20    1
    21     8     9   ar
    22     8    13    1
    23     9    14    1
    24    20    24    1
    25    20    25    1
    26    20    26    1
