@<TRIPOS>MOLECULE
GS-949-0.out
 13 12 0 0 0
SMALL
MULLIKEN_CHARGES
****
Gaussian 16 # wB97XD def2tzvp, opt=(calcfc, maxcycles=70, maxstep=10), freq=norama
@<TRIPOS>ATOM
      1 C          -0.5040   -0.0106    0.0736 C.2     1  UNL1       -0.0926
      2 C          -0.3851    1.4721    0.3443 C.2     1  UNL1        0.3790
      3 O          -0.5016    1.9054    1.4779 O.2     1  UNL1       -0.4512
      4 C           0.5368   -0.8266   -0.0324 C.2     1  UNL1       -0.0211
      5 CL          0.4179   -2.5190   -0.2626 Cl      1  UNL1       -0.0173
      6 BR          2.2998   -0.1701    0.0899 Br      1  UNL1        0.0157
      7 BR         -2.2803   -0.6204   -0.0051 Br      1  UNL1        0.0061
      8 N          -0.1818    2.2253   -0.7387 N.am    1  UNL1       -0.2977
      9 C          -0.0450    3.6645   -0.6538 C.3     1  UNL1       -0.2527
     10 H          -0.0873    1.7747   -1.6322 H       1  UNL1        0.2899
     11 H           0.0653    4.0610   -1.6592 H       1  UNL1        0.1536
     12 H          -0.9276    4.1050   -0.1899 H       1  UNL1        0.1440
     13 H           0.8315    3.9358   -0.0638 H       1  UNL1        0.1440
@<TRIPOS>BOND
     1    11     9    1
     2    10     8    1
     3     8     9    1
     4     8     2   am
     5     9    12    1
     6     9    13    1
     7     5     4    1
     8     4     1    2
     9     4     6    1
    10     7     1    1
    11     1     2    1
    12     2     3    2
