@<TRIPOS>MOLECULE
GS-985-0.out
 8 7 0 0 0
SMALL
MULLIKEN_CHARGES
****
Gaussian 16 # wB97XD def2tzvp, opt=(calcfc, maxcycles=70, maxstep=10), freq=norama
@<TRIPOS>ATOM
      1 C           0.1401    0.4671    0.0000 C.2     1  UNL1       -0.0772
      2 C           0.3775    1.9291    0.0000 C.2     1  UNL1        0.1401
      3 O           1.4736    2.4243   -0.0000 O.2     1  UNL1       -0.3406
      4 C          -1.0904   -0.0667    0.0000 C.2     1  UNL1        0.1192
      5 CL         -1.3936   -1.7447   -0.0000 Cl      1  UNL1        0.0191
      6 CL         -2.5170    0.8877   -0.0000 Cl      1  UNL1        0.0073
      7 BR          1.6759   -0.6100    0.0000 Br      1  UNL1       -0.0029
      8 H          -0.5304    2.5476    0.0000 H       1  UNL1        0.1350
@<TRIPOS>BOND
     1     3     2    2
     2     5     4    1
     3     4     6    1
     4     4     1    2
     5     7     1    1
     6     2     1    1
     7     2     8    1
