@<TRIPOS>MOLECULE
GS-910-0.out
 19 18 0 0 0
SMALL
MULLIKEN_CHARGES
****
Gaussian 16 # wB97XD def2tzvp, opt=(calcfc, maxcycles=70, maxstep=10), freq=norama
@<TRIPOS>ATOM
      1 C           0.1881    0.0524   -0.2195 C.2     1  UNL1       -0.1179
      2 C          -1.2613   -0.0656   -0.6254 C.2     1  UNL1        0.2954
      3 O          -1.5238   -0.3644   -1.7832 O.2     1  UNL1       -0.4705
      4 C           0.8303    1.2127   -0.1863 C.2     1  UNL1        0.0510
      5 CL          2.5275    1.2999    0.1620 Cl      1  UNL1       -0.0824
      6 C           0.1891    2.5401   -0.4261 C.3     1  UNL1       -0.3655
      7 H          -0.8695    2.4335   -0.6560 H       1  UNL1        0.1547
      8 H           0.2936    3.1692    0.4593 H       1  UNL1        0.1563
      9 H           0.6784    3.0470   -1.2588 H       1  UNL1        0.1601
     10 BR          1.0006   -1.6197    0.0956 Br      1  UNL1       -0.0288
     11 N          -2.1849    0.1612    0.3228 N.am    1  UNL1       -0.1029
     12 C          -3.5942    0.0931   -0.0136 C.3     1  UNL1       -0.2777
     13 C          -1.8953    0.4735    1.7093 C.3     1  UNL1       -0.2959
     14 H          -3.7055   -0.0422   -1.0843 H       1  UNL1        0.1529
     15 H          -4.0653   -0.7420    0.5092 H       1  UNL1        0.1486
     16 H          -4.0861    1.0184    0.2913 H       1  UNL1        0.1439
     17 H          -0.8353    0.3752    1.9196 H       1  UNL1        0.1723
     18 H          -2.2090    1.4940    1.9397 H       1  UNL1        0.1542
     19 H          -2.4442   -0.2134    2.3555 H       1  UNL1        0.1523
@<TRIPOS>BOND
     1     3     2    2
     2     9     6    1
     3    14    12    1
     4     7     6    1
     5     2     1    1
     6     2    11   am
     7     6     4    1
     8     6     8    1
     9     1     4    2
    10     1    10    1
    11     4     5    1
    12    12    16    1
    13    12    11    1
    14    12    15    1
    15    11    13    1
    16    13    17    1
    17    13    18    1
    18    13    19    1
