@<TRIPOS>MOLECULE
GS-917-0.out
 16 15 0 0 0
SMALL
MULLIKEN_CHARGES
****
Gaussian 16 # wB97XD def2tzvp, opt=(calcfc, maxcycles=70, maxstep=10), freq=norama
@<TRIPOS>ATOM
      1 C           0.1277   -0.1568    0.0924 C.2     1  UNL1       -0.0876
      2 C          -1.2707    0.4021    0.1862 C.2     1  UNL1        0.3958
      3 O          -1.4947    1.4766    0.7263 O.2     1  UNL1       -0.4816
      4 C           1.2102    0.6092   -0.0611 C.2     1  UNL1        0.0892
      5 CL          2.7847   -0.1176   -0.1235 Cl      1  UNL1       -0.0781
      6 C           1.2468    2.0924   -0.2163 C.3     1  UNL1       -0.3504
      7 H           1.7455    2.5399    0.6455 H       1  UNL1        0.1530
      8 H           1.8268    2.3457   -1.1045 H       1  UNL1        0.1478
      9 H           0.2475    2.5061   -0.2945 H       1  UNL1        0.1511
     10 CL          0.2496   -1.8872    0.1908 Cl      1  UNL1       -0.0833
     11 N          -2.2359   -0.3487   -0.3585 N.am    1  UNL1       -0.3022
     12 C          -3.6224    0.0621   -0.3257 C.3     1  UNL1       -0.2518
     13 H          -1.9972   -1.2253   -0.7868 H       1  UNL1        0.2681
     14 H          -4.2231   -0.7118   -0.7960 H       1  UNL1        0.1503
     15 H          -3.9599    0.2002    0.7022 H       1  UNL1        0.1400
     16 H          -3.7638    1.0001   -0.8643 H       1  UNL1        0.1397
@<TRIPOS>BOND
     1     8     6    1
     2    16    12    1
     3    14    12    1
     4    13    11    1
     5    11    12    1
     6    11     2   am
     7    12    15    1
     8     9     6    1
     9     6     4    1
    10     6     7    1
    11     5     4    1
    12     4     1    2
    13     1     2    1
    14     1    10    1
    15     2     3    2
