@<TRIPOS>MOLECULE
GS-916-0.out
 15 14 0 0 0
SMALL
MULLIKEN_CHARGES
****
Gaussian 16 # wB97XD def2tzvp, opt=(calcfc, maxcycles=70, maxstep=10), freq=norama
@<TRIPOS>ATOM
      1 C          -0.1142   -0.1614    0.0798 C.2     1  UNL1       -0.0728
      2 C           1.2664    0.4105    0.1606 C.2     1  UNL1        0.4392
      3 O           1.5241    1.4864    0.6397 O.2     1  UNL1       -0.4118
      4 C          -1.2028    0.6048   -0.0511 C.2     1  UNL1        0.0935
      5 CL         -2.7676   -0.1336   -0.1086 Cl      1  UNL1       -0.0663
      6 C          -1.2528    2.0898   -0.1792 C.3     1  UNL1       -0.3505
      7 H          -0.2636    2.5159   -0.3028 H       1  UNL1        0.1522
      8 H          -1.8799    2.3545   -1.0308 H       1  UNL1        0.1512
      9 H          -1.7091    2.5177    0.7157 H       1  UNL1        0.1573
     10 CL         -0.2132   -1.8868    0.1654 Cl      1  UNL1       -0.0685
     11 O           2.1719   -0.4065   -0.3530 O.3     1  UNL1       -0.2674
     12 C           3.5307    0.0409   -0.3022 C.3     1  UNL1       -0.1981
     13 H           4.1163   -0.7569   -0.7477 H       1  UNL1        0.1521
     14 H           3.6464    0.9623   -0.8709 H       1  UNL1        0.1448
     15 H           3.8346    0.2064    0.7303 H       1  UNL1        0.1451
@<TRIPOS>BOND
     1     8     6    1
     2    14    12    1
     3    13    12    1
     4    11    12    1
     5    11     2    1
     6     7     6    1
     7    12    15    1
     8     6     4    1
     9     6     9    1
    10     5     4    1
    11     4     1    2
    12     1     2    1
    13     1    10    1
    14     2     3    2
