@<TRIPOS>MOLECULE
GS-905-0.out
 11 10 0 0 0
SMALL
MULLIKEN_CHARGES
****
Gaussian 16 # wB97XD def2tzvp, opt=(calcfc, maxcycles=70, maxstep=10), freq=norama
@<TRIPOS>ATOM
      1 C           0.1225    0.5197   -0.0210 C.2     1  UNL1       -0.0636
      2 C           0.1934    2.0032   -0.0629 C.2     1  UNL1        0.1492
      3 O           1.1805    2.6692    0.1184 O.2     1  UNL1       -0.3565
      4 C           1.1765   -0.3096   -0.0195 C.2     1  UNL1        0.1132
      5 CL          0.9421   -2.0208    0.0297 Cl      1  UNL1       -0.0499
      6 C           2.6135    0.0818   -0.0638 C.3     1  UNL1       -0.3383
      7 H           3.0844   -0.1739    0.8879 H       1  UNL1        0.1601
      8 H           3.1175   -0.4874   -0.8453 H       1  UNL1        0.1530
      9 H           2.7299    1.1451   -0.2387 H       1  UNL1        0.1554
     10 BR         -1.6642   -0.1067    0.0005 Br      1  UNL1       -0.0490
     11 H          -0.7790    2.4801   -0.2716 H       1  UNL1        0.1265
@<TRIPOS>BOND
     1     8     6    1
     2    11     2    1
     3     9     6    1
     4     6     4    1
     5     6     7    1
     6     2     1    1
     7     2     3    2
     8     1     4    2
     9     1    10    1
    10     4     5    1
