@<TRIPOS>MOLECULE
GS-943-0.out
 23 23 0 0 0
SMALL
MULLIKEN_CHARGES
****
Gaussian 16 # wB97XD def2tzvp, opt=(calcfc, maxcycles=70, maxstep=10), freq=norama
@<TRIPOS>ATOM
      1 C           1.3616    1.2117    0.0879 C.2     1  UNL1       -0.1153
      2 C          -0.0444    1.0549   -0.4424 C.2     1  UNL1        0.4368
      3 O          -0.3246    1.4510   -1.5578 O.2     1  UNL1       -0.4472
      4 C           2.1858    0.1737    0.1256 C.2     1  UNL1       -0.0125
      5 CL          3.8281    0.2799    0.6474 Cl      1  UNL1       -0.0518
      6 BR          1.6858   -1.5664   -0.4235 Br      1  UNL1       -0.0170
      7 C           1.7182    2.6166    0.4644 C.3     1  UNL1       -0.3367
      8 H           1.5567    3.2712   -0.3941 H       1  UNL1        0.1564
      9 H           1.0665    2.9630    1.2693 H       1  UNL1        0.1534
     10 H           2.7518    2.7041    0.7867 H       1  UNL1        0.1385
     11 N          -0.9098    0.5131    0.4454 N.am    1  UNL1       -0.2695
     12 C          -2.2782    0.2225    0.2908 C.ar    1  UNL1        0.3119
     13 C          -2.9095   -0.4266    1.3518 C.ar    1  UNL1       -0.2973
     14 C          -4.2530   -0.7447    1.2754 C.ar    1  UNL1       -0.0977
     15 C          -4.9865   -0.4217    0.1415 C.ar    1  UNL1       -0.1824
     16 C          -4.3565    0.2232   -0.9105 C.ar    1  UNL1       -0.1087
     17 C          -3.0088    0.5501   -0.8485 C.ar    1  UNL1       -0.2925
     18 H          -0.5081    0.2370    1.3273 H       1  UNL1        0.2802
     19 H          -2.3430   -0.6833    2.2392 H       1  UNL1        0.1476
     20 H          -4.7277   -1.2489    2.1074 H       1  UNL1        0.1479
     21 H          -6.0378   -0.6710    0.0810 H       1  UNL1        0.1450
     22 H          -4.9168    0.4813   -1.8003 H       1  UNL1        0.1462
     23 H          -2.5278    1.0519   -1.6719 H       1  UNL1        0.1650
@<TRIPOS>BOND
     1    22    16    1
     2    23    17    1
     3     3     2    2
     4    16    17   ar
     5    16    15   ar
     6    17    12   ar
     7     2     1    1
     8     2    11   am
     9     6     4    1
    10     8     7    1
    11    21    15    1
    12     1     4    2
    13     1     7    1
    14     4     5    1
    15    15    14   ar
    16    12    11    1
    17    12    13   ar
    18    11    18    1
    19     7    10    1
    20     7     9    1
    21    14    13   ar
    22    14    20    1
    23    13    19    1
