@<TRIPOS>MOLECULE
GS-907-0.out
 13 12 0 0 0
SMALL
MULLIKEN_CHARGES
****
Gaussian 16 # wB97XD def2tzvp, opt=(calcfc, maxcycles=70, maxstep=10), freq=norama
@<TRIPOS>ATOM
      1 C          -0.1716    0.2876   -0.0205 C.2     1  UNL1       -0.0986
      2 C          -1.4108    1.1485   -0.0801 C.2     1  UNL1        0.3224
      3 O          -1.4991    2.0704   -0.8735 O.2     1  UNL1       -0.4452
      4 C           1.0504    0.8098    0.0636 C.2     1  UNL1        0.0878
      5 CL          2.4541   -0.2086    0.0811 Cl      1  UNL1       -0.0753
      6 C           1.3779    2.2626    0.1718 C.3     1  UNL1       -0.3469
      7 H           0.4799    2.8694    0.2335 H       1  UNL1        0.1497
      8 H           1.9941    2.4298    1.0561 H       1  UNL1        0.1506
      9 H           1.9535    2.5762   -0.7007 H       1  UNL1        0.1540
     10 BR         -0.4866   -1.5764   -0.1006 Br      1  UNL1       -0.0392
     11 N          -2.3806    0.8305    0.7896 N.am    1  UNL1       -0.4429
     12 H          -3.2423    1.3480    0.7689 H       1  UNL1        0.2886
     13 H          -2.2923    0.0670    1.4357 H       1  UNL1        0.2950
@<TRIPOS>BOND
     1     3     2    2
     2     9     6    1
     3    10     1    1
     4     2     1    1
     5     2    11   am
     6     1     4    2
     7     4     5    1
     8     4     6    1
     9     6     7    1
    10     6     8    1
    11    12    11    1
    12    11    13    1
