@<TRIPOS>MOLECULE
GS-984-0.out
 21 21 0 0 0
SMALL
MULLIKEN_CHARGES
****
Gaussian 16 # wB97XD def2tzvp, opt=(calcfc, maxcycles=70, maxstep=10), freq=norama
@<TRIPOS>ATOM
      1 C          -1.0835    0.8021    0.3567 C.2     1  UNL1       -0.0858
      2 C           0.2044    1.1660   -0.3468 C.2     1  UNL1        0.3781
      3 O           0.2070    2.1134   -1.1004 O.2     1  UNL1       -0.3720
      4 C          -1.8463   -0.1678   -0.1229 C.2     1  UNL1        0.0210
      5 CL         -3.3689   -0.6244    0.5509 Cl      1  UNL1       -0.0518
      6 CL         -1.3987   -1.1026   -1.5093 Cl      1  UNL1       -0.0475
      7 C          -1.4022    1.6566    1.5431 C.3     1  UNL1       -0.3260
      8 H          -1.4725    2.7009    1.2324 H       1  UNL1        0.1579
      9 H          -2.3361    1.3640    2.0154 H       1  UNL1        0.1398
     10 H          -0.5982    1.5873    2.2794 H       1  UNL1        0.1545
     11 C           1.4307    0.3919   -0.0287 C.ar    1  UNL1        0.0305
     12 C           2.6234    0.7257   -0.6702 C.ar    1  UNL1       -0.2146
     13 C           3.7818    0.0261   -0.3886 C.ar    1  UNL1       -0.1189
     14 C           3.7589   -1.0093    0.5389 C.ar    1  UNL1       -0.1197
     15 C           2.5769   -1.3444    1.1829 C.ar    1  UNL1       -0.1507
     16 C           1.4139   -0.6470    0.8993 C.ar    1  UNL1       -0.1836
     17 H           2.6266    1.5349   -1.3883 H       1  UNL1        0.1502
     18 H           4.7054    0.2847   -0.8898 H       1  UNL1        0.1516
     19 H           4.6669   -1.5561    0.7592 H       1  UNL1        0.1538
     20 H           2.5603   -2.1499    1.9052 H       1  UNL1        0.1517
     21 H           0.4924   -0.9139    1.4007 H       1  UNL1        0.1813
@<TRIPOS>BOND
     1     6     4    1
     2    17    12    1
     3     3     2    2
     4    18    13    1
     5    12    13   ar
     6    12    11   ar
     7    13    14   ar
     8     2    11    1
     9     2     1    1
    10     4     1    2
    11     4     5    1
    12    11    16   ar
    13     1     7    1
    14    14    19    1
    15    14    15   ar
    16    16    15   ar
    17    16    21    1
    18    15    20    1
    19     8     7    1
    20     7     9    1
    21     7    10    1
