@<TRIPOS>MOLECULE
GS-922-0.out
 21 21 0 0 0
SMALL
MULLIKEN_CHARGES
****
Gaussian 16 # wB97XD def2tzvp, opt=(calcfc, maxcycles=70, maxstep=10), freq=norama
@<TRIPOS>ATOM
      1 C          -0.0359    0.3423   -0.0370 C.2     1  UNL1       -0.0126
      2 C           0.3337    1.8115    0.0254 C.2     1  UNL1        0.2213
      3 O           0.5179    2.4350   -0.9900 O.2     1  UNL1       -0.3494
      4 C           0.8988   -0.5950   -0.0875 C.2     1  UNL1       -0.0145
      5 CL          0.5609   -2.2798   -0.2235 Cl      1  UNL1       -0.0355
      6 BR          2.7435   -0.1884   -0.0289 Br      1  UNL1       -0.0080
      7 C          -1.4971    0.0797   -0.0269 C.ar    1  UNL1        0.1636
      8 C          -2.0857   -0.6261    1.0193 C.ar    1  UNL1       -0.2366
      9 C          -3.4554   -0.8350    1.0337 C.ar    1  UNL1       -0.1242
     10 C          -4.2470   -0.3399    0.0068 C.ar    1  UNL1       -0.1351
     11 C          -3.6656    0.3715   -1.0327 C.ar    1  UNL1       -0.1458
     12 C          -2.2963    0.5879   -1.0477 C.ar    1  UNL1       -0.2059
     13 H          -1.4690   -1.0071    1.8232 H       1  UNL1        0.1644
     14 H          -3.9053   -1.3840    1.8508 H       1  UNL1        0.1487
     15 H          -5.3167   -0.5052    0.0191 H       1  UNL1        0.1498
     16 H          -4.2788    0.7615   -1.8347 H       1  UNL1        0.1484
     17 H          -1.8430    1.1466   -1.8568 H       1  UNL1        0.1536
     18 C           0.3769    2.4101    1.3966 C.3     1  UNL1       -0.3542
     19 H           1.1475    1.9068    1.9850 H       1  UNL1        0.1588
     20 H           0.5809    3.4768    1.3436 H       1  UNL1        0.1472
     21 H          -0.5763    2.2311    1.8992 H       1  UNL1        0.1660
@<TRIPOS>BOND
     1    17    12    1
     2    16    11    1
     3    12    11   ar
     4    12     7   ar
     5    11    10   ar
     6     3     2    2
     7     5     4    1
     8     4     1    2
     9     4     6    1
    10     1     7    1
    11     1     2    1
    12     7     8   ar
    13    10    15    1
    14    10     9   ar
    15     2    18    1
    16     8     9   ar
    17     8    13    1
    18     9    14    1
    19    20    18    1
    20    18    21    1
    21    18    19    1
