@<TRIPOS>MOLECULE
GS-914-0.out
 14 13 0 0 0
SMALL
MULLIKEN_CHARGES
****
Gaussian 16 # wB97XD def2tzvp, opt=(calcfc, maxcycles=70, maxstep=10), freq=norama
@<TRIPOS>ATOM
      1 C          -0.2582   -0.1106   -0.0620 C.2     1  UNL1       -0.0635
      2 C          -1.6125    0.5389   -0.0762 C.2     1  UNL1        0.2869
      3 O          -1.7581    1.6460   -0.5424 O.2     1  UNL1       -0.3825
      4 C           0.8885    0.5718    0.0460 C.2     1  UNL1        0.0980
      5 CL          2.3995   -0.2764    0.0555 Cl      1  UNL1       -0.0686
      6 C           1.0475    2.0480    0.1874 C.3     1  UNL1       -0.3406
      7 H           0.1008    2.5344    0.3952 H       1  UNL1        0.1512
      8 H           1.7589    2.2583    0.9859 H       1  UNL1        0.1485
      9 H           1.4524    2.4624   -0.7382 H       1  UNL1        0.1570
     10 CL         -0.2744   -1.8433   -0.1586 Cl      1  UNL1       -0.0764
     11 C          -2.7669   -0.2321    0.4987 C.3     1  UNL1       -0.3759
     12 H          -2.4941   -0.7182    1.4354 H       1  UNL1        0.1588
     13 H          -3.6003    0.4493    0.6503 H       1  UNL1        0.1444
     14 H          -3.0686   -1.0158   -0.1990 H       1  UNL1        0.1627
@<TRIPOS>BOND
     1     9     6    1
     2     3     2    2
     3    14    11    1
     4    10     1    1
     5     2     1    1
     6     2    11    1
     7     1     4    2
     8     4     5    1
     9     4     6    1
    10     6     7    1
    11     6     8    1
    12    11    13    1
    13    11    12    1
