@<TRIPOS>MOLECULE
GS-95-0.out
 33 34 0 0 0
SMALL
MULLIKEN_CHARGES
****
Gaussian 16 # wB97XD def2tzvp, opt=(calcfc, maxcycles=70, maxstep=10), freq=norama
@<TRIPOS>ATOM
      1 C           0.7470    0.8514   -0.2746 C.2     1  UNL1       -0.2513
      2 C          -0.7129    1.0969   -0.1214 C.2     1  UNL1        0.4096
      3 O          -1.1287    2.2227    0.1076 O.2     1  UNL1       -0.4785
      4 C           1.4852   -0.0813    0.3349 C.2     1  UNL1        0.0424
      5 C           2.9550   -0.1096    0.1117 C.ar    1  UNL1        0.1698
      6 C           3.6922    1.0682   -0.0139 C.ar    1  UNL1       -0.2434
      7 C           5.0592    1.0307   -0.2380 C.ar    1  UNL1       -0.1441
      8 C           5.7173   -0.1865   -0.3396 C.ar    1  UNL1       -0.1400
      9 C           4.9982   -1.3651   -0.2049 C.ar    1  UNL1       -0.1539
     10 C           3.6323   -1.3268    0.0279 C.ar    1  UNL1       -0.2203
     11 H           3.1953    2.0248    0.0876 H       1  UNL1        0.1570
     12 H           5.6132    1.9569   -0.3244 H       1  UNL1        0.1449
     13 H           6.7853   -0.2161   -0.5139 H       1  UNL1        0.1463
     14 H           5.5020   -2.3206   -0.2794 H       1  UNL1        0.1445
     15 H           3.0884   -2.2570    0.1302 H       1  UNL1        0.1513
     16 C           0.9342   -1.1250    1.2690 C.3     1  UNL1       -0.4336
     17 H           1.5968   -1.2449    2.1266 H       1  UNL1        0.1571
     18 H          -0.0585   -0.8708    1.6330 H       1  UNL1        0.1583
     19 H           0.8713   -2.0984    0.7758 H       1  UNL1        0.1646
     20 H           1.2286    1.5901   -0.9048 H       1  UNL1        0.1630
     21 N          -1.5118    0.0093   -0.2965 N.am    1  UNL1       -0.2819
     22 C          -2.9082   -0.1020   -0.1938 C.ar    1  UNL1        0.3112
     23 C          -3.4670   -1.3443   -0.4991 C.ar    1  UNL1       -0.3055
     24 C          -4.8334   -1.5382   -0.4134 C.ar    1  UNL1       -0.0964
     25 C          -5.6663   -0.4984   -0.0218 C.ar    1  UNL1       -0.1869
     26 C          -5.1099    0.7336    0.2823 C.ar    1  UNL1       -0.1069
     27 C          -3.7400    0.9438    0.2011 C.ar    1  UNL1       -0.2966
     28 H          -1.0363   -0.8350   -0.5690 H       1  UNL1        0.2775
     29 H          -2.8240   -2.1614   -0.8048 H       1  UNL1        0.1450
     30 H          -5.2482   -2.5087   -0.6543 H       1  UNL1        0.1465
     31 H          -6.7358   -0.6491    0.0450 H       1  UNL1        0.1437
     32 H          -5.7470    1.5533    0.5903 H       1  UNL1        0.1447
     33 H          -3.3168    1.9061    0.4375 H       1  UNL1        0.1621
@<TRIPOS>BOND
     1    20     1    1
     2    29    23    1
     3    30    24    1
     4    28    21    1
     5    13     8    1
     6    23    24   ar
     7    23    22   ar
     8    24    25   ar
     9     8     7   ar
    10     8     9   ar
    11    12     7    1
    12    21    22    1
    13    21     2   am
    14    14     9    1
    15     1     2    1
    16     1     4    2
    17     7     6   ar
    18     9    10   ar
    19    22    27   ar
    20     2     3    2
    21    25    31    1
    22    25    26   ar
    23     6    11    1
    24     6     5   ar
    25    10     5   ar
    26    10    15    1
    27     5     4    1
    28    27    26   ar
    29    27    33    1
    30    26    32    1
    31     4    16    1
    32    19    16    1
    33    16    18    1
    34    16    17    1
