@<TRIPOS>MOLECULE
GS-965-1.out
 23 23 0 0 0
SMALL
MULLIKEN_CHARGES
****
Gaussian 16 # wB97XD def2tzvp, opt=(calcfc, maxcycles=70, maxstep=1), freq=noraman
@<TRIPOS>ATOM
      1 C           0.3272   -0.0377   -0.1193 C.2     1  UNL1       -0.0861
      2 C           1.1031    1.2486   -0.2966 C.2     1  UNL1        0.3248
      3 O           1.2818    1.7271   -1.4066 O.2     1  UNL1       -0.4626
      4 C           0.9686   -1.1980   -0.0760 C.2     1  UNL1        0.0358
      5 CL          0.1802   -2.7289    0.0057 Cl      1  UNL1       -0.0331
      6 CL          2.6915   -1.3133   -0.1360 Cl      1  UNL1       -0.0369
      7 C          -1.1475    0.1100   -0.0490 C.ar    1  UNL1        0.2021
      8 C          -1.8472   -0.2893    1.0868 C.ar    1  UNL1       -0.2402
      9 C          -3.2204   -0.1165    1.1571 C.ar    1  UNL1       -0.1322
     10 C          -3.9059    0.4573    0.0958 C.ar    1  UNL1       -0.1373
     11 C          -3.2119    0.8633   -1.0351 C.ar    1  UNL1       -0.1401
     12 C          -1.8377    0.6964   -1.1072 C.ar    1  UNL1       -0.2256
     13 H          -1.3127   -0.7313    1.9182 H       1  UNL1        0.1636
     14 H          -3.7551   -0.4286    2.0450 H       1  UNL1        0.1474
     15 H          -4.9787    0.5907    0.1514 H       1  UNL1        0.1486
     16 H          -3.7413    1.3125   -1.8655 H       1  UNL1        0.1471
     17 H          -1.2946    1.0170   -1.9868 H       1  UNL1        0.1509
     18 N           1.5122    1.8221    0.8392 N.am    1  UNL1       -0.2884
     19 C           2.2399    3.0737    0.8507 C.3     1  UNL1       -0.2573
     20 H           1.3362    1.3491    1.7083 H       1  UNL1        0.2859
     21 H           2.4154    3.3626    1.8835 H       1  UNL1        0.1512
     22 H           3.1991    2.9713    0.3410 H       1  UNL1        0.1410
     23 H           1.6644    3.8554    0.3544 H       1  UNL1        0.1413
@<TRIPOS>BOND
     1    17    12    1
     2    16    11    1
     3     3     2    2
     4    12    11   ar
     5    12     7   ar
     6    11    10   ar
     7     2     1    1
     8     2    18   am
     9     6     4    1
    10     1     4    2
    11     1     7    1
    12     4     5    1
    13     7     8   ar
    14    10    15    1
    15    10     9   ar
    16    22    19    1
    17    23    19    1
    18    18    19    1
    19    18    20    1
    20    19    21    1
    21     8     9   ar
    22     8    13    1
    23     9    14    1
