@<TRIPOS>MOLECULE
GS-964-0.out
 22 22 0 0 0
SMALL
MULLIKEN_CHARGES
****
Gaussian 16 # wB97XD def2tzvp, opt=(calcfc, maxcycles=70, maxstep=10), freq=norama
@<TRIPOS>ATOM
      1 C           0.3338    0.0322    0.1211 C.2     1  UNL1       -0.0130
      2 C           1.0699   -1.2705    0.2754 C.2     1  UNL1        0.3726
      3 O           1.3113   -1.7765    1.3399 O.2     1  UNL1       -0.3872
      4 C           1.0180    1.1680    0.0807 C.2     1  UNL1        0.0211
      5 CL          0.2884    2.7245    0.0081 Cl      1  UNL1       -0.0251
      6 CL          2.7431    1.2069    0.1247 Cl      1  UNL1       -0.0315
      7 C          -1.1441   -0.0791    0.0545 C.ar    1  UNL1        0.1782
      8 C          -1.8411    0.3774   -1.0610 C.ar    1  UNL1       -0.2435
      9 C          -3.2187    0.2429   -1.1240 C.ar    1  UNL1       -0.1340
     10 C          -3.9100   -0.3507   -0.0774 C.ar    1  UNL1       -0.1334
     11 C          -3.2183   -0.8154    1.0319 C.ar    1  UNL1       -0.1438
     12 C          -1.8399   -0.6862    1.0973 C.ar    1  UNL1       -0.2167
     13 H          -1.3019    0.8327   -1.8818 H       1  UNL1        0.1657
     14 H          -3.7525    0.5996   -1.9955 H       1  UNL1        0.1485
     15 H          -4.9863   -0.4545   -0.1282 H       1  UNL1        0.1496
     16 H          -3.7523   -1.2809    1.8503 H       1  UNL1        0.1484
     17 H          -1.3006   -1.0509    1.9623 H       1  UNL1        0.1551
     18 O           1.3602   -1.8003   -0.9005 O.3     1  UNL1       -0.2529
     19 C           2.0231   -3.0725   -0.8823 C.3     1  UNL1       -0.2049
     20 H           2.1716   -3.3383   -1.9240 H       1  UNL1        0.1539
     21 H           2.9798   -2.9893   -0.3692 H       1  UNL1        0.1466
     22 H           1.3995   -3.8129   -0.3838 H       1  UNL1        0.1464
@<TRIPOS>BOND
     1    14     9    1
     2    20    19    1
     3    13     8    1
     4     9     8   ar
     5     9    10   ar
     6     8     7   ar
     7    18    19    1
     8    18     2    1
     9    19    22    1
    10    19    21    1
    11    15    10    1
    12    10    11   ar
    13     5     4    1
    14     7     1    1
    15     7    12   ar
    16     4     1    2
    17     4     6    1
    18     1     2    1
    19     2     3    2
    20    11    12   ar
    21    11    16    1
    22    12    17    1
